version 2
run General-0-20200403-21:57:33-38134
attr configname General
attr datetime 20200403-21:57:33
attr experiment General
attr inifile omnetpp.ini
attr iterationvars ""
attr iterationvarsf ""
attr measurement ""
attr network Mm1
attr processid 38134
attr repetition 0
attr replication #0
attr resultdir results
attr runnumber 0
attr seedset 0
param **.source.interArrivalTime exponential(1.0s)
param **.queue.serviceTime 0.5s
param **.source.numJobs 10000

vector 0 Mm1.queue queueLength:vector ETV
attr interpolationmode sample-hold
attr title "queue length, vector"
vector 1 Mm1.sink lifeTime:vector ETV
attr interpolationmode none
attr title "lifetime of arrived jobs, vector"
attr unit s
0	0	0	0
0	44	13.402245902161	1
0	45	13.417117738439	0
0	52	14.330924238182	1
0	53	14.477765099044	0
0	60	16.612833329311	1
0	61	17.054448660218	0
0	68	20.246101750081	1
0	69	20.427745609239	0
0	72	20.729703855029	1
0	73	20.927745609239	0
0	76	21.37915020328	1
0	77	21.427745609239	0
0	100	27.365119063678	1
0	101	27.366247054662	0
0	112	31.845427769267	1
0	114	32.25700576551	2
0	115	32.271742413802	1
0	118	32.348166791634	2
0	119	32.771742413802	1
0	121	33.271742413802	0
0	124	33.392779299942	1
0	126	33.413204888341	2
0	127	33.771742413802	1
0	130	33.872453025596	2
0	131	34.271742413802	1
0	133	34.771742413802	0
0	148	40.467125730013	1
0	149	40.815894876348	0
0	192	56.386748083597	1
0	193	56.760873674159	0
0	208	59.710458535712	1
0	209	60.055728855212	0
0	212	60.481293194179	1
0	213	60.555728855212	0
0	228	65.646851804649	1
0	229	66.034905644016	0
0	232	66.182417524877	1
0	233	66.534905644016	0
0	236	66.824112226908	1
0	237	67.034905644016	0
0	240	67.131392579061	1
0	242	67.337595861091	2
0	243	67.534905644016	1
0	245	68.034905644016	0
0	260	71.014271785387	1
0	261	71.27022329465	0
0	268	71.999884518291	1
0	270	72.018853087492	2
0	271	72.354606490999	1
0	274	72.410623898169	2
0	275	72.854606490999	1
0	277	73.354606490999	0
0	280	73.372004837235	1
0	282	73.534141326681	2
0	283	73.854606490999	1
0	285	74.354606490999	0
0	288	74.481138003856	1
0	290	74.732579935931	2
0	291	74.854606490999	1
0	293	75.354606490999	0
0	296	75.692127913299	1
0	297	75.854606490999	0
0	300	76.180684962607	1
0	301	76.354606490999	0
0	320	83.575916884668	1
0	321	83.630398389617	0
0	340	88.726963961832	1
0	342	88.789079252298	2
0	343	89.122402736057	1
0	345	89.622402736057	0
0	364	95.745063047497	1
0	366	95.98126975358	2
0	367	96.057636981479	1
0	370	96.424673782201	2
0	371	96.557636981479	1
0	374	96.562702470629	2
0	375	97.057636981479	1
0	377	97.557636981479	0
0	380	97.95174516042	1
0	381	98.057636981479	0
0	384	98.330707124703	1
0	385	98.557636981479	0
0	392	99.718870744699	1
0	393	99.766768684474	0
0	396	100.111983302003	1
0	397	100.266768684474	0
0	404	100.995594251944	1
0	405	101.456411095531	0
0	408	101.572918562751	1
0	409	101.956411095531	0
0	424	110.333868164304	1
0	425	110.726233056148	0
0	432	111.625996096432	1
0	433	111.891694577656	0
0	440	112.809928887278	1
0	441	113.134015341852	0
0	456	120.392768339508	1
0	457	120.600687806241	0
0	460	120.927833016591	1
0	461	121.100687806241	0
0	464	121.555774597582	1
0	465	121.600687806241	0
0	472	122.479832607664	1
0	473	122.699555599185	0
0	480	123.629824137881	1
0	481	123.956696681735	0
0	484	124.042325367803	1
0	486	124.159280777595	2
0	487	124.456696681735	1
0	489	124.956696681735	0
0	492	125.282449079128	1
0	493	125.456696681735	0
0	500	126.732077119652	1
0	501	126.850521276278	0
0	504	126.880789388904	1
0	505	127.350521276278	0
0	512	128.606305318684	1
0	513	128.887424722177	0
0	520	132.053509168276	1
0	521	132.093495210536	0
0	532	134.873774785302	1
0	534	134.975919666827	2
0	535	135.360110206871	1
0	537	135.860110206871	0
0	540	135.951021600983	1
0	541	136.360110206871	0
0	552	138.99168966133	1
0	553	139.390654886021	0
0	580	153.583805194707	1
0	581	154.026478268283	0
0	584	154.512283691608	1
0	585	154.526478268283	0
0	596	156.476665978547	1
0	598	156.516642277605	2
0	599	156.956475850401	1
0	602	157.099520666472	2
0	604	157.431930907436	3
0	605	157.456475850401	2
0	607	157.956475850401	1
0	609	158.456475850401	0
0	616	161.451557795592	1
0	617	161.823501030281	0
0	620	161.896977257512	1
0	622	162.248153346893	2
0	623	162.323501030281	1
0	625	162.823501030281	0
0	628	162.903799631257	1
0	630	163.030188267682	2
0	631	163.323501030281	1
0	633	163.823501030281	0
0	636	164.197061794231	1
0	637	164.323501030281	0
0	640	164.579762743093	1
0	641	164.823501030281	0
0	656	169.809093500419	1
0	658	170.053488948501	2
0	659	170.242796098937	1
0	661	170.742796098937	0
0	664	171.232678475566	1
0	665	171.242796098937	0
0	680	175.213274886207	1
0	681	175.404860046109	0
0	696	179.249514439266	1
0	697	179.650864130848	0
0	708	182.734485070639	1
0	709	183.147714588299	0
0	716	185.709081414844	1
0	717	185.883740999315	0
0	720	186.092641628943	1
0	722	186.102042379607	2
0	723	186.383740999315	1
0	725	186.883740999315	0
0	728	187.202888289698	1
0	729	187.383740999315	0
0	736	189.191546654261	1
0	737	189.5502159407	0
0	752	193.676197757062	1
0	753	193.834543590036	0
0	756	193.983715480824	1
0	758	194.186065919391	2
0	759	194.334543590036	1
0	762	194.693266042648	2
0	763	194.834543590036	1
0	765	195.334543590036	0
0	768	195.576395084607	1
0	769	195.834543590036	0
0	776	196.401504943204	1
0	778	196.581757195189	2
0	779	196.881192484408	1
0	781	197.381192484408	0
0	788	198.809229163646	1
0	790	198.813935704138	2
0	791	198.847498267602	1
0	794	198.972277210369	2
0	795	199.347498267602	1
0	797	199.847498267602	0
0	800	200.104911352341	1
0	801	200.347498267602	0
0	808	201.262716045344	1
0	809	201.447994384489	0
0	820	204.148329310766	1
0	821	204.307982572531	0
0	832	208.277397614469	1
0	833	208.491376641961	0
0	864	216.331782779301	1
0	865	216.57936278641	0
0	900	230.976414397684	1
0	902	231.329434530958	2
0	903	231.352887750322	1
0	905	231.852887750322	0
0	932	239.045108427422	1
0	933	239.257697951352	0
0	940	240.291383096155	1
0	941	240.415644253748	0
0	980	255.072765327737	1
0	981	255.310708086062	0
0	1008	259.719610062349	1
0	1009	260.200230281001	0
0	1012	260.35473777798	1
0	1013	260.700230281001	0
0	1016	260.71366499385	1
0	1017	261.200230281001	0
0	1028	263.391693442352	1
0	1029	263.55202870977	0
0	1032	263.73429306705	1
0	1033	264.05202870977	0
0	1036	264.217928753639	1
0	1037	264.55202870977	0
0	1056	269.376265669419	1
0	1058	269.484812767914	2
0	1059	269.730691690971	1
0	1062	269.839036900159	2
0	1064	269.935959654736	3
0	1065	270.230691690971	2
0	1067	270.730691690971	1
0	1070	270.779848127327	2
0	1072	271.216876141101	3
0	1073	271.230691690971	2
0	1075	271.730691690971	1
0	1078	272.110605219407	2
0	1079	272.230691690971	1
0	1081	272.730691690971	0
0	1084	272.913157205166	1
0	1085	273.230691690971	0
0	1092	273.801440359167	1
0	1093	274.267236940809	0
0	1108	279.775964924639	1
0	1109	279.88883483249	0
0	1112	280.34057542576	1
0	1113	280.38883483249	0
0	1116	280.590656920738	1
0	1117	280.88883483249	0
0	1124	283.011584538684	1
0	1125	283.35929091343	0
0	1128	283.469757422642	1
0	1130	283.572078037495	2
0	1131	283.85929091343	1
0	1134	284.144539588923	2
0	1135	284.35929091343	1
0	1137	284.85929091343	0
0	1148	290.808829919881	1
0	1149	291.007264006658	0
0	1168	295.136509994644	1
0	1170	295.241391830244	2
0	1171	295.530897351015	1
0	1173	296.030897351015	0
0	1180	298.195019616271	1
0	1181	298.260673960327	0
0	1200	308.848083150632	1
0	1201	309.18621306392	0
0	1212	313.262452170371	1
0	1214	313.439777745516	2
0	1215	313.724169257486	1
0	1218	314.14969567274	2
0	1219	314.224169257486	1
0	1221	314.724169257486	0
0	1224	315.105662096662	1
0	1225	315.224169257486	0
0	1228	315.288200698545	1
0	1230	315.42038440816	2
0	1231	315.724169257486	1
0	1233	316.224169257486	0
0	1260	323.985517197271	1
0	1261	324.334726187077	0
0	1264	324.508387227359	1
0	1266	324.542174012911	2
0	1268	324.613849397224	3
0	1269	324.834726187077	2
0	1271	325.334726187077	1
0	1273	325.834726187077	0
0	1284	330.326407368721	1
0	1285	330.359134802311	0
0	1300	332.807810324709	1
0	1301	333.255897772526	0
0	1308	335.275494905707	1
0	1309	335.320583060915	0
0	1316	339.002223263603	1
0	1317	339.485455497611	0
0	1324	341.20112981026	1
0	1326	341.212913042178	2
0	1327	341.438800501094	1
0	1329	341.938800501094	0
0	1336	343.106959944685	1
0	1337	343.160707124166	0
0	1352	348.87545638805	1
0	1353	349.187161412831	0
0	1356	349.290068930709	1
0	1357	349.687161412831	0
0	1360	350.026200030696	1
0	1361	350.187161412831	0
0	1368	350.754530600419	1
0	1370	351.168509523092	2
0	1371	351.19866054753	1
0	1374	351.391648731193	2
0	1376	351.589478238652	3
0	1378	351.608173709073	4
0	1379	351.69866054753	3
0	1382	351.795692660276	4
0	1383	352.19866054753	3
0	1385	352.69866054753	2
0	1387	353.19866054753	1
0	1390	353.374105382382	2
0	1391	353.69866054753	1
0	1394	353.99670272636	2
0	1395	354.19866054753	1
0	1398	354.250208431503	2
0	1399	354.69866054753	1
0	1401	355.19866054753	0
0	1408	356.749896593303	1
0	1409	356.826239491946	0
0	1432	365.362916097295	1
0	1433	365.83055929265	0
0	1440	367.073704665114	1
0	1441	367.393747323562	0
0	1444	367.766904434652	1
0	1445	367.893747323562	0
0	1452	368.790069498542	1
0	1453	369.238386592747	0
0	1456	369.650993135223	1
0	1457	369.738386592747	0
0	1464	371.123632112107	1
0	1465	371.351964041765	0
0	1476	379.035081060984	1
0	1477	379.224113256014	0
0	1512	391.19042072765	1
0	1513	391.316534231747	0
0	1524	392.745018776584	1
0	1526	392.980543350003	2
0	1527	393.006265903736	1
0	1530	393.232141963116	2
0	1532	393.438174011599	3
0	1533	393.506265903736	2
0	1536	393.685033280398	3
0	1537	394.006265903736	2
0	1539	394.506265903736	1
0	1541	395.006265903736	0
0	1568	403.810850081582	1
0	1569	404.052837317642	0
0	1576	405.245495636364	1
0	1578	405.334649926359	2
0	1580	405.394430889274	3
0	1581	405.451987984441	2
0	1584	405.45250325139	3
0	1585	405.951987984441	2
0	1588	406.022400816696	3
0	1589	406.451987984441	2
0	1592	406.691514540386	3
0	1593	406.951987984441	2
0	1596	407.06518433478	3
0	1597	407.451987984441	2
0	1599	407.951987984441	1
0	1601	408.451987984441	0
0	1616	414.606823437124	1
0	1617	414.632407146791	0
0	1624	415.766230744029	1
0	1625	416.068263008695	0
0	1628	416.548206464905	1
0	1629	416.568263008695	0
0	1632	416.573194818218	1
0	1633	417.068263008695	0
0	1640	418.571172626172	1
0	1641	419.001554955098	0
0	1688	434.20210733957	1
0	1689	434.457616317527	0
0	1692	434.810940253307	1
0	1693	434.957616317527	0
0	1704	438.573367759572	1
0	1706	438.720963792463	2
0	1708	438.741831011073	3
0	1709	438.767762857758	2
0	1712	439.00218242262	3
0	1713	439.267762857758	2
0	1715	439.767762857758	1
0	1717	440.267762857758	0
0	1720	440.422565878205	1
0	1721	440.767762857758	0
0	1728	442.941816859725	1
0	1729	443.05612916568	0
0	1736	445.773299008644	1
0	1737	445.789660621154	0
0	1748	448.091224040805	1
0	1749	448.198651012617	0
0	1764	451.594294695599	1
0	1765	452.094239343704	0
0	1772	454.028879230297	1
0	1773	454.15511593648	0
0	1776	454.34845388517	1
0	1777	454.65511593648	0
0	1780	454.902624714218	1
0	1781	455.15511593648	0
0	1792	458.873455605669	1
0	1793	459.168107836933	0
0	1816	465.74107739549	1
0	1817	465.998358901818	0
0	1828	470.500860740098	1
0	1829	470.740220610722	0
0	1840	474.229066845493	1
0	1841	474.436115387006	0
0	1844	474.605496197014	1
0	1846	474.84541971645	2
0	1847	474.936115387006	1
0	1849	475.436115387006	0
0	1864	479.396929273891	1
0	1865	479.870931528698	0
0	1872	480.872805070225	1
0	1874	481.039679711458	2
0	1875	481.14028005184	1
0	1878	481.59251808211	2
0	1879	481.64028005184	1
0	1881	482.14028005184	0
0	1888	483.372166926247	1
0	1889	483.40349045027	0
0	1900	485.276121517364	1
0	1901	485.534201872593	0
0	1904	485.60133753534	1
0	1906	485.807695528945	2
0	1907	486.034201872593	1
0	1909	486.534201872593	0
0	1912	486.691481184978	1
0	1913	487.034201872593	0
0	1928	491.833309103141	1
0	1929	492.208276513218	0
0	1940	494.009492558909	1
0	1942	494.151134593704	2
0	1943	494.185293445423	1
0	1946	494.343396034546	2
0	1947	494.685293445423	1
0	1949	495.185293445423	0
0	1952	495.605208708033	1
0	1953	495.685293445423	0
0	1976	500.82162531283	1
0	1978	501.050869638037	2
0	1979	501.119166549132	1
0	1982	501.207345408421	2
0	1984	501.387619707999	3
0	1985	501.619166549132	2
0	1988	502.05716029886	3
0	1989	502.119166549132	2
0	1992	502.190500922133	3
0	1993	502.619166549132	2
0	1996	502.629956312626	3
0	1997	503.119166549132	2
0	1999	503.619166549132	1
0	2002	503.910380666605	2
0	2003	504.119166549132	1
0	2005	504.619166549132	0
0	2012	506.761942906581	1
0	2013	507.23101661502	0
0	2028	511.063971471463	1
0	2029	511.466803793096	0
0	2036	513.649661524762	1
0	2038	513.73677010802	2
0	2039	513.90446343212	1
0	2041	514.40446343212	0
0	2060	518.164007417497	1
0	2061	518.617319673853	0
0	2068	521.667159667576	1
0	2069	521.93250381832	0
0	2072	522.012679251285	1
0	2074	522.350833966129	2
0	2075	522.43250381832	1
0	2078	522.626361903167	2
0	2079	522.93250381832	1
0	2081	523.43250381832	0
0	2084	523.757280382356	1
0	2086	523.862967556461	2
0	2088	523.928080421248	3
0	2089	523.93250381832	2
0	2092	523.94464651567	3
0	2093	524.43250381832	2
0	2096	524.755787537898	3
0	2097	524.93250381832	2
0	2099	525.43250381832	1
0	2101	525.93250381832	0
0	2108	527.417629077796	1
0	2109	527.908346053418	0
0	2128	536.340738127707	1
0	2129	536.509828246531	0
0	2140	538.639751341109	1
0	2142	538.705843351802	2
0	2143	538.939309146023	1
0	2146	539.42408983191	2
0	2147	539.439309146023	1
0	2149	539.939309146023	0
0	2152	540.088897581462	1
0	2153	540.439309146023	0
0	2176	549.73739706979	1
0	2177	549.824667203063	0
0	2180	549.983812892003	1
0	2181	550.324667203063	0
0	2192	554.113590270642	1
0	2193	554.350013157807	0
0	2240	571.587953572339	1
0	2241	571.74120026855	0
0	2252	575.555583130011	1
0	2253	575.839486913417	0
0	2264	578.015162784079	1
0	2265	578.501837539251	0
0	2272	582.10135592688	1
0	2273	582.174820114844	0
0	2280	584.24443892597	1
0	2281	584.584104831483	0
0	2308	596.713789776018	1
0	2309	597.209733454697	0
0	2316	598.047974762036	1
0	2317	598.233976863973	0
0	2320	598.507766079812	1
0	2321	598.733976863973	0
0	2324	599.036233308114	1
0	2326	599.183458345427	2
0	2327	599.233976863973	1
0	2329	599.733976863973	0
0	2332	599.742466015418	1
0	2333	600.233976863973	0
0	2340	601.822695970423	1
0	2341	601.96909939516	0
0	2344	602.033229258627	1
0	2345	602.46909939516	0
0	2348	602.545943901257	1
0	2349	602.96909939516	0
0	2352	603.261989219251	1
0	2354	603.390569456527	2
0	2355	603.46909939516	1
0	2358	603.644580834877	2
0	2359	603.96909939516	1
0	2361	604.46909939516	0
0	2368	607.695182466155	1
0	2369	608.092214102436	0
0	2372	608.21626128724	1
0	2373	608.592214102436	0
0	2388	615.070222234219	1
0	2389	615.14922893617	0
0	2412	624.698407815107	1
0	2413	624.753258475701	0
0	2416	625.103590697449	1
0	2417	625.253258475701	0
0	2420	625.613581531298	1
0	2422	625.69816102306	2
0	2423	625.753258475701	1
0	2426	626.057454928186	2
0	2427	626.253258475701	1
0	2430	626.580422581842	2
0	2431	626.753258475701	1
0	2433	627.253258475701	0
0	2440	628.33732521017	1
0	2441	628.573054746034	0
0	2448	631.086022523884	1
0	2449	631.443897012491	0
0	2452	631.479524935007	1
0	2454	631.534432307558	2
0	2455	631.943897012491	1
0	2457	632.443897012491	0
0	2468	635.896486536603	1
0	2470	635.907979786812	2
0	2471	636.382439945361	1
0	2474	636.670403471027	2
0	2475	636.882439945361	1
0	2477	637.382439945361	0
0	2484	638.505849847923	1
0	2485	638.642607629021	0
0	2488	638.664783027579	1
0	2489	639.142607629021	0
0	2496	640.892030765011	1
0	2498	641.180543475359	2
0	2500	641.274418022642	3
0	2501	641.309168492092	2
0	2503	641.809168492092	1
0	2505	642.309168492092	0
0	2508	642.405796790246	1
0	2509	642.809168492092	0
0	2520	645.465174015298	1
0	2521	645.683649992827	0
0	2524	646.031068556933	1
0	2525	646.183649992827	0
0	2528	646.5767262717	1
0	2529	646.683649992827	0
0	2548	653.002769665259	1
0	2549	653.026291082661	0
0	2556	654.402749384805	1
0	2558	654.717909413521	2
0	2559	654.801215300864	1
0	2562	655.013811286769	2
0	2564	655.154779171184	3
0	2565	655.301215300864	2
0	2567	655.801215300864	1
0	2570	656.051108376205	2
0	2572	656.108074908672	3
0	2573	656.301215300864	2
0	2576	656.755249612715	3
0	2577	656.801215300864	2
0	2580	657.114210931092	3
0	2581	657.301215300864	2
0	2584	657.783513803078	3
0	2585	657.801215300864	2
0	2588	658.087485362307	3
0	2589	658.301215300864	2
0	2592	658.700924451899	3
0	2593	658.801215300864	2
0	2595	659.301215300864	1
0	2598	659.309988907223	2
0	2599	659.801215300864	1
0	2602	660.053572098999	2
0	2603	660.301215300864	1
0	2605	660.801215300864	0
0	2608	661.203313486749	1
0	2609	661.301215300864	0
0	2612	661.786737257784	1
0	2613	661.801215300864	0
0	2624	665.224479105137	1
0	2625	665.391075766762	0
0	2628	665.792649588879	1
0	2629	665.891075766762	0
0	2632	666.27056757639	1
0	2633	666.391075766762	0
0	2640	668.224137759335	1
0	2641	668.524282221414	0
0	2644	668.93614582496	1
0	2645	669.024282221414	0
0	2652	670.580228571074	1
0	2654	670.638756470021	2
0	2655	670.989891326992	1
0	2657	671.489891326992	0
0	2660	671.717683378521	1
0	2661	671.989891326992	0
0	2668	673.143117721071	1
0	2669	673.411696749116	0
0	2688	679.476879881492	1
0	2690	679.673341767389	2
0	2691	679.676554801206	1
0	2694	680.141448220624	2
0	2695	680.176554801206	1
0	2698	680.213867330739	2
0	2699	680.676554801206	1
0	2702	681.099627976769	2
0	2704	681.10936338611	3
0	2705	681.176554801206	2
0	2708	681.427947233989	3
0	2709	681.676554801206	2
0	2711	682.176554801206	1
0	2713	682.676554801206	0
0	2720	684.117421250971	1
0	2721	684.154031223431	0
0	2724	684.260674272353	1
0	2726	684.480142433247	2
0	2727	684.654031223431	1
0	2729	685.154031223431	0
0	2744	689.244609976534	1
0	2745	689.698971927038	0
0	2760	692.863951139557	1
0	2761	693.283872283613	0
0	2764	693.497883266049	1
0	2765	693.783872283613	0
0	2768	694.229428605182	1
0	2769	694.283872283613	0
0	2776	696.738979597445	1
0	2777	696.872528305612	0
0	2796	702.202388192419	1
0	2797	702.511092146521	0
0	2808	703.920544607437	1
0	2809	704.384541777688	0
0	2828	707.714696032558	1
0	2829	708.040500872184	0
0	2832	708.482949374425	1
0	2833	708.540500872184	0
0	2836	708.63823495993	1
0	2837	709.040500872184	0
0	2848	711.155490314494	1
0	2849	711.330319444005	0
0	2856	712.068285925927	1
0	2857	712.430332693998	0
0	2860	712.462343497874	1
0	2861	712.930332693998	0
0	2864	712.961035830744	1
0	2866	713.120047847543	2
0	2867	713.430332693998	1
0	2869	713.930332693998	0
0	2876	716.427076053673	1
0	2878	716.634261235924	2
0	2879	716.75287733709	1
0	2882	716.772848057347	2
0	2883	717.25287733709	1
0	2885	717.75287733709	0
0	2900	720.862660588769	1
0	2901	721.265863116461	0
0	2904	721.473143433767	1
0	2905	721.765863116461	0
0	2916	726.111198549139	1
0	2917	726.524581554692	0
0	2920	726.72480275888	1
0	2921	727.024581554692	0
0	2940	732.328055016095	1
0	2941	732.729935493466	0
0	2968	739.50758552613	1
0	2969	739.61050457611	0
0	2980	742.208452126723	1
0	2981	742.681010026293	0
0	2992	744.80820690991	1
0	2993	745.033743387906	0
0	3000	746.439762169704	1
0	3002	746.449576606102	2
0	3003	746.764767121486	1
0	3005	747.264767121486	0
0	3012	748.409715668506	1
0	3013	748.541132728895	0
0	3020	751.873063746683	1
0	3021	752.107970645276	0
0	3024	752.485809191547	1
0	3025	752.607970645276	0
0	3052	760.632516383229	1
0	3053	761.029964490225	0
0	3076	769.374452343308	1
0	3077	769.702913715935	0
0	3092	778.432198460455	1
0	3094	778.605855023663	2
0	3096	778.705076550147	3
0	3097	778.8433660778	2
0	3099	779.3433660778	1
0	3102	779.696356055906	2
0	3103	779.8433660778	1
0	3105	780.3433660778	0
0	3108	780.700407229784	1
0	3109	780.8433660778	0
0	3112	781.208626683837	1
0	3113	781.3433660778	0
0	3120	784.255172033953	1
0	3121	784.690406341163	0
0	3136	788.459890081969	1
0	3137	788.660561699551	0
0	3152	793.041047032952	1
0	3154	793.407752186746	2
0	3155	793.50717517771	1
0	3157	794.00717517771	0
0	3164	796.729087633225	1
0	3165	797.101514059428	0
0	3168	797.168164618813	1
0	3169	797.601514059428	0
0	3172	797.754933425493	1
0	3173	798.101514059428	0
0	3176	798.196088236223	1
0	3177	798.601514059428	0
0	3180	798.693297522566	1
0	3182	798.709760806551	2
0	3183	799.101514059428	1
0	3186	799.4687255808	2
0	3187	799.601514059428	1
0	3190	799.673577847947	2
0	3191	800.101514059428	1
0	3193	800.601514059428	0
0	3216	806.716007773825	1
0	3217	807.111075026497	0
0	3228	810.665100199986	1
0	3229	811.061429363344	0
0	3236	812.797935666286	1
0	3237	813.201394387258	0
0	3240	813.403369447926	1
0	3242	813.460962364743	2
0	3243	813.701394387258	1
0	3246	813.856527965138	2
0	3248	813.947035435286	3
0	3249	814.201394387258	2
0	3252	814.211970372923	3
0	3254	814.48269476366	4
0	3255	814.701394387258	3
0	3257	815.201394387258	2
0	3260	815.435817301926	3
0	3261	815.701394387258	2
0	3263	816.201394387258	1
0	3265	816.701394387258	0
0	3272	817.298993378705	1
0	3273	817.765359457785	0
0	3276	818.037913398644	1
0	3278	818.053642522419	2
0	3279	818.265359457785	1
0	3281	818.765359457785	0
0	3284	818.773287420108	1
0	3285	819.265359457785	0
0	3288	819.333295793439	1
0	3289	819.765359457785	0
0	3296	820.453139907727	1
0	3297	820.882637959366	0
0	3300	821.239698999619	1
0	3301	821.382637959366	0
0	3304	821.529972414742	1
0	3306	821.562976399798	2
0	3308	821.812927216448	3
0	3309	821.882637959366	2
0	3311	822.382637959366	1
0	3314	822.680789086336	2
0	3315	822.882637959366	1
0	3318	822.972735158065	2
0	3319	823.382637959366	1
0	3321	823.882637959366	0
0	3328	824.587633099804	1
0	3329	824.947157382849	0
0	3332	825.059601187576	1
0	3334	825.071710432638	2
0	3335	825.447157382849	1
0	3338	825.74706630281	2
0	3340	825.869781310127	3
0	3341	825.947157382849	2
0	3343	826.447157382849	1
0	3345	826.947157382849	0
0	3356	831.111513409313	1
0	3357	831.330937483136	0
0	3364	835.239996855048	1
0	3365	835.271075527775	0
0	3372	839.927011752733	1
0	3373	840.380276850998	0
0	3376	840.453042548493	1
0	3378	840.824204269294	2
0	3379	840.880276850998	1
0	3382	841.00208102715	2
0	3383	841.380276850998	1
0	3385	841.880276850998	0
0	3412	852.148930278898	1
0	3413	852.189902351411	0
0	3416	852.216464435775	1
0	3418	852.591526378894	2
0	3419	852.689902351411	1
0	3421	853.189902351411	0
0	3432	856.079363535639	1
0	3434	856.152415192794	2
0	3435	856.239126316026	1
0	3438	856.428720385722	2
0	3439	856.739126316026	1
0	3441	857.239126316026	0
0	3444	857.579382978651	1
0	3445	857.739126316026	0
0	3452	859.144798984291	1
0	3453	859.165586289808	0
0	3456	859.427245696249	1
0	3457	859.665586289808	0
0	3496	869.74209725522	1
0	3497	869.903751136521	0
0	3520	875.613321182991	1
0	3521	875.666181280394	0
0	3532	881.299292454206	1
0	3533	881.348053655715	0
0	3544	884.442941084658	1
0	3545	884.895841813603	0
0	3552	886.049743099179	1
0	3553	886.284960825841	0
0	3556	886.645914990576	1
0	3557	886.784960825841	0
0	3560	887.074422594756	1
0	3561	887.284960825841	0
0	3572	891.82815889426	1
0	3573	892.030785366352	0
0	3580	896.542052914895	1
0	3581	896.561174690592	0
0	3600	906.188207884497	1
0	3602	906.317246387681	2
0	3603	906.336440499067	1
0	3605	906.836440499067	0
0	3612	911.423439352193	1
0	3613	911.64696663565	0
0	3616	911.710348447577	1
0	3618	911.969460703459	2
0	3620	912.081405244603	3
0	3621	912.14696663565	2
0	3623	912.64696663565	1
0	3626	912.753788146641	2
0	3627	913.14696663565	1
0	3629	913.64696663565	0
0	3640	918.255787151049	1
0	3641	918.489970602027	0
0	3644	918.69912154705	1
0	3645	918.989970602027	0
0	3652	920.356076416822	1
0	3653	920.369557277064	0
0	3656	920.416204785952	1
0	3657	920.869557277064	0
0	3668	924.334630347647	1
0	3669	924.713798951384	0
0	3680	927.784686211546	1
0	3682	927.927189157197	2
0	3683	927.966631666355	1
0	3686	928.40370497817	2
0	3687	928.466631666355	1
0	3690	928.872500669809	2
0	3691	928.966631666355	1
0	3694	929.341378825437	2
0	3695	929.466631666355	1
0	3698	929.73354011506	2
0	3699	929.966631666355	1
0	3701	930.466631666355	0
0	3712	932.526350393255	1
0	3713	932.754794601573	0
0	3720	934.302272347198	1
0	3721	934.613707622947	0
0	3724	935.003317856524	1
0	3725	935.113707622947	0
0	3728	935.599867773401	1
0	3729	935.613707622947	0
0	3732	935.951189054943	1
0	3733	936.113707622947	0
0	3736	936.314267895127	1
0	3737	936.613707622947	0
0	3748	940.746684899672	1
0	3749	940.813020044298	0
0	3752	941.018154866101	1
0	3753	941.313020044298	0
0	3772	946.949955128383	1
0	3773	947.224912634521	0
0	3796	954.748926385899	1
0	3797	954.820014550127	0
0	3804	956.163212988575	1
0	3805	956.638284892847	0
0	3812	957.52691291211	1
0	3813	957.865770333284	0
0	3820	961.109250072428	1
0	3821	961.467856959695	0
0	3840	969.434439246348	1
0	3841	969.860932868929	0
0	3848	970.726974315097	1
0	3849	970.880540987602	0
0	3856	972.006725559134	1
0	3857	972.341432546813	0
0	3860	972.600056127395	1
0	3861	972.841432546813	0
0	3864	973.140458824997	1
0	3865	973.341432546813	0
0	3872	974.472185433823	1
0	3873	974.831440278394	0
0	3876	974.947525103465	1
0	3877	975.331440278394	0
0	3884	975.979559833674	1
0	3885	976.374163703762	0
0	3888	976.462135048835	1
0	3889	976.874163703762	0
0	3900	982.020119732472	1
0	3901	982.444927923308	0
0	3908	985.475232417902	1
0	3909	985.95574312495	0
0	3912	986.266841512505	1
0	3913	986.45574312495	0
0	3920	990.479091905782	1
0	3922	990.639821946349	2
0	3923	990.657751602913	1
0	3925	991.157751602913	0
0	3928	991.536874960455	1
0	3929	991.657751602913	0
0	3932	991.836227963396	1
0	3933	992.157751602913	0
0	3940	994.349683508153	1
0	3941	994.606938070793	0
0	3944	994.871794812564	1
0	3945	995.106938070793	0
0	3960	1000.578609294101	1
0	3961	1000.761631914215	0
0	3964	1000.897450342514	1
0	3965	1001.261631914215	0
0	3968	1001.505235106631	1
0	3969	1001.761631914215	0
0	3980	1005.553812315325	1
0	3982	1005.839381235828	2
0	3983	1006.027984270899	1
0	3985	1006.527984270899	0
0	4000	1010.338681753807	1
0	4001	1010.467065998979	0
0	4004	1010.664098470969	1
0	4005	1010.967065998979	0
0	4008	1011.130962814532	1
0	4009	1011.467065998979	0
0	4020	1014.154714565511	1
0	4021	1014.627833946001	0
0	4032	1016.931646525967	1
0	4033	1017.0259201821	0
0	4036	1017.331441798444	1
0	4037	1017.5259201821	0
0	4052	1025.492908284842	1
0	4054	1025.542823887268	2
0	4055	1025.808292411936	1
0	4057	1026.308292411936	0
0	4064	1028.152900551025	1
0	4065	1028.360349949834	0
0	4068	1028.553282082484	1
0	4069	1028.860349949834	0
0	4072	1029.144117302889	1
0	4073	1029.360349949834	0
0	4080	1031.454962499935	1
0	4081	1031.844446623333	0
0	4084	1032.173328335146	1
0	4085	1032.344446623333	0
0	4088	1032.601769363937	1
0	4089	1032.844446623333	0
0	4092	1033.316403551315	1
0	4093	1033.344446623333	0
0	4100	1035.152960785626	1
0	4101	1035.163852375006	0
0	4128	1044.620867249492	1
0	4129	1044.891550077855	0
0	4136	1046.16941610675	1
0	4137	1046.251324447806	0
0	4156	1051.543302388168	1
0	4157	1051.724909372112	0
0	4164	1052.488343192444	1
0	4166	1052.820603816023	2
0	4167	1052.827859085086	1
0	4169	1053.327859085086	0
0	4176	1054.791353798912	1
0	4177	1055.260652025901	0
0	4188	1057.394569628338	1
0	4190	1057.402484974844	2
0	4191	1057.538403846774	1
0	4194	1058.019078063367	2
0	4195	1058.038403846774	1
0	4198	1058.485375089805	2
0	4200	1058.510208297551	3
0	4201	1058.538403846774	2
0	4203	1059.038403846774	1
0	4206	1059.266374545341	2
0	4207	1059.538403846774	1
0	4209	1060.038403846774	0
0	4212	1060.082967234189	1
0	4213	1060.538403846774	0
0	4220	1063.083531696111	1
0	4221	1063.135443727736	0
0	4224	1063.177287083721	1
0	4225	1063.635443727736	0
0	4228	1063.8758680898	1
0	4229	1064.135443727736	0
0	4232	1064.396646954671	1
0	4234	1064.563442712793	2
0	4236	1064.588056356864	3
0	4237	1064.635443727736	2
0	4239	1065.135443727736	1
0	4242	1065.142324830277	2
0	4244	1065.561804153746	3
0	4245	1065.635443727736	2
0	4247	1066.135443727736	1
0	4249	1066.635443727736	0
0	4260	1068.910114979884	1
0	4262	1069.23732536121	2
0	4263	1069.401566961239	1
0	4265	1069.901566961239	0
0	4272	1072.942125066492	1
0	4273	1073.206719199987	0
0	4280	1074.239157770174	1
0	4282	1074.343870043603	2
0	4283	1074.616195203286	1
0	4285	1075.116195203286	0
0	4288	1075.204584751117	1
0	4290	1075.546759442733	2
0	4291	1075.616195203286	1
0	4293	1076.116195203286	0
0	4316	1083.377756348923	1
0	4318	1083.380463223502	2
0	4319	1083.385314972546	1
0	4322	1083.638048089843	2
0	4323	1083.885314972546	1
0	4325	1084.385314972546	0
0	4328	1084.679892554664	1
0	4329	1084.885314972546	0
0	4332	1085.286604963908	1
0	4333	1085.385314972546	0
0	4360	1098.235889036375	1
0	4361	1098.718873412645	0
0	4392	1106.11063376402	1
0	4394	1106.140165575184	2
0	4395	1106.204220897273	1
0	4397	1106.704220897273	0
0	4408	1110.327012600739	1
0	4409	1110.724710819729	0
0	4412	1111.108897023843	1
0	4413	1111.224710819729	0
0	4416	1111.692357196148	1
0	4417	1111.724710819729	0
0	4428	1117.635675384295	1
0	4429	1117.652622360032	0
0	4440	1120.55834083872	1
0	4441	1120.963056355848	0
0	4444	1121.17639321586	1
0	4446	1121.434852464578	2
0	4447	1121.463056355848	1
0	4449	1121.963056355848	0
0	4484	1133.313687282597	1
0	4485	1133.415738887948	0
0	4488	1133.456935986382	1
0	4489	1133.915738887948	0
0	4492	1133.975163834486	1
0	4493	1134.415738887948	0
0	4516	1142.905008404806	1
0	4517	1142.928010653862	0
0	4532	1147.150108586331	1
0	4533	1147.521229940289	0
0	4548	1152.969451190691	1
0	4549	1153.131010057874	0
0	4556	1156.464388554177	1
0	4557	1156.92046132005	0
0	4564	1159.110815487039	1
0	4566	1159.14751455732	2
0	4568	1159.260044503699	3
0	4570	1159.452140079848	4
0	4571	1159.487406015532	3
0	4574	1159.83265102841	4
0	4575	1159.987406015532	3
0	4578	1160.325529796777	4
0	4579	1160.487406015532	3
0	4582	1160.608602232624	4
0	4583	1160.987406015532	3
0	4585	1161.487406015532	2
0	4587	1161.987406015532	1
0	4589	1162.487406015532	0
0	4600	1164.832175999034	1
0	4601	1164.975459746361	0
0	4608	1167.375322312133	1
0	4609	1167.700412052037	0
0	4628	1172.191624794419	1
0	4629	1172.419758955845	0
0	4640	1175.620483294967	1
0	4642	1175.778155347796	2
0	4643	1175.945855498487	1
0	4645	1176.445855498487	0
0	4648	1176.86025723228	1
0	4649	1176.945855498487	0
0	4652	1177.269174761527	1
0	4653	1177.445855498487	0
0	4656	1177.84946434951	1
0	4657	1177.945855498487	0
0	4664	1178.911272689012	1
0	4665	1179.331702533919	0
0	4668	1179.359601995624	1
0	4669	1179.831702533919	0
0	4680	1183.255125375393	1
0	4681	1183.470905631865	0
0	4688	1185.403327311449	1
0	4689	1185.862905733796	0
0	4692	1185.97276342532	1
0	4694	1186.034579573968	2
0	4695	1186.362905733796	1
0	4698	1186.763586295349	2
0	4700	1186.826609739606	3
0	4701	1186.862905733796	2
0	4703	1187.362905733796	1
0	4706	1187.470334545458	2
0	4707	1187.862905733796	1
0	4709	1188.362905733796	0
0	4716	1190.057188200859	1
0	4717	1190.35340281865	0
0	4732	1194.465418798101	1
0	4733	1194.757715511889	0
0	4752	1198.69400196828	1
0	4753	1198.830954813886	0
0	4756	1199.080496150324	1
0	4757	1199.330954813886	0
0	4764	1205.279510625855	1
0	4766	1205.729223993801	2
0	4767	1205.776406269046	1
0	4769	1206.276406269046	0
0	4772	1206.638794698674	1
0	4773	1206.776406269046	0
0	4776	1207.27489815304	1
0	4777	1207.276406269046	0
0	4784	1208.797299847317	1
0	4786	1208.802502980124	2
0	4787	1208.822090408532	1
0	4789	1209.322090408532	0
0	4800	1216.397084427796	1
0	4801	1216.705126525845	0
0	4808	1217.88480909418	1
0	4809	1217.987330014257	0
0	4812	1218.231737977335	1
0	4813	1218.487330014257	0
0	4820	1219.595861510634	1
0	4822	1219.66115510628	2
0	4823	1219.872262452299	1
0	4825	1220.372262452299	0
0	4836	1223.565387947725	1
0	4837	1223.695408767974	0
0	4848	1225.065077212515	1
0	4849	1225.231002129456	0
0	4856	1226.339990847198	1
0	4857	1226.567639620843	0
0	4872	1230.301273578764	1
0	4873	1230.342522276118	0
0	4888	1234.853553562023	1
0	4889	1234.94185298415	0
0	4892	1235.418808843334	1
0	4893	1235.44185298415	0
0	4904	1239.983585822481	1
0	4905	1240.340362551	0
0	4908	1240.421325278594	1
0	4910	1240.523140920571	2
0	4911	1240.840362551	1
0	4913	1241.340362551	0
0	4916	1241.593223410199	1
0	4917	1241.840362551	0
0	4920	1242.013891082599	1
0	4921	1242.340362551	0
0	4948	1247.825220624652	1
0	4949	1248.28693182688	0
0	4960	1259.66783215208	1
0	4961	1259.734132681679	0
0	4988	1268.43201158822	1
0	4989	1268.621815464956	0
0	5012	1279.918584909457	1
0	5013	1280.298126641688	0
0	5020	1281.434505638683	1
0	5021	1281.616736297301	0
0	5024	1281.843223292917	1
0	5026	1281.928844087028	2
0	5028	1282.088643867462	3
0	5029	1282.116736297301	2
0	5031	1282.616736297301	1
0	5033	1283.116736297301	0
0	5036	1283.537965736938	1
0	5038	1283.602649342083	2
0	5039	1283.616736297301	1
0	5042	1283.624576722773	2
0	5044	1283.901518948101	3
0	5046	1284.049150831332	4
0	5047	1284.116736297301	3
0	5050	1284.615280383028	4
0	5051	1284.616736297301	3
0	5054	1284.917235386517	4
0	5055	1285.116736297301	3
0	5057	1285.616736297301	2
0	5060	1285.655372129065	3
0	5061	1286.116736297301	2
0	5063	1286.616736297301	1
0	5065	1287.116736297301	0
0	5076	1289.384860461638	1
0	5077	1289.687128693697	0
0	5088	1293.265425419291	1
0	5089	1293.64063232703	0
0	5092	1293.658642706282	1
0	5094	1293.771816038674	2
0	5095	1294.14063232703	1
0	5097	1294.64063232703	0
0	5100	1294.647454836765	1
0	5101	1295.14063232703	0
0	5104	1295.538308638656	1
0	5105	1295.64063232703	0
0	5124	1304.427901278697	1
0	5125	1304.873964322279	0
0	5152	1316.912174246817	1
0	5153	1316.933597675747	0
0	5156	1317.149840117923	1
0	5158	1317.309784331276	2
0	5159	1317.433597675747	1
0	5161	1317.933597675747	0
0	5172	1320.12246947452	1
0	5173	1320.412904988794	0
0	5188	1325.471984436245	1
0	5190	1325.574302915818	2
0	5192	1325.668869652319	3
0	5193	1325.963013048911	2
0	5196	1326.357580496275	3
0	5197	1326.463013048911	2
0	5199	1326.963013048911	1
0	5202	1327.323016295972	2
0	5203	1327.463013048911	1
0	5205	1327.963013048911	0
0	5208	1328.193096206339	1
0	5209	1328.463013048911	0
0	5212	1328.675075415899	1
0	5214	1328.9515631	2
0	5215	1328.963013048911	1
0	5218	1329.053111870581	2
0	5220	1329.238267924067	3
0	5221	1329.463013048911	2
0	5223	1329.963013048911	1
0	5225	1330.463013048911	0
0	5240	1337.725946944148	1
0	5242	1338.04218404999	2
0	5243	1338.16562892037	1
0	5245	1338.66562892037	0
0	5248	1338.678234521114	1
0	5249	1339.16562892037	0
0	5252	1339.31914994431	1
0	5254	1339.442260399227	2
0	5255	1339.66562892037	1
0	5258	1340.095713658954	2
0	5259	1340.16562892037	1
0	5261	1340.66562892037	0
0	5264	1340.706467833819	1
0	5265	1341.16562892037	0
0	5268	1341.416538179475	1
0	5269	1341.66562892037	0
0	5284	1349.402267819332	1
0	5285	1349.79695340013	0
0	5292	1351.388510358915	1
0	5294	1351.513297881274	2
0	5295	1351.848052403254	1
0	5298	1352.174377682104	2
0	5299	1352.348052403254	1
0	5302	1352.490805073292	2
0	5303	1352.848052403254	1
0	5306	1353.103772341974	2
0	5307	1353.348052403254	1
0	5310	1353.620939269045	2
0	5311	1353.848052403254	1
0	5314	1353.889162362316	2
0	5315	1354.348052403254	1
0	5318	1354.399674938252	2
0	5320	1354.460349238427	3
0	5321	1354.848052403254	2
0	5323	1355.348052403254	1
0	5326	1355.573213050039	2
0	5328	1355.705424649868	3
0	5329	1355.848052403254	2
0	5332	1356.128114437935	3
0	5333	1356.348052403254	2
0	5335	1356.848052403254	1
0	5337	1357.348052403254	0
0	5356	1361.332222054556	1
0	5357	1361.351930240748	0
0	5360	1361.841650564777	1
0	5361	1361.851930240748	0
0	5364	1361.863869216796	1
0	5365	1362.351930240748	0
0	5368	1362.429080851643	1
0	5369	1362.851930240748	0
0	5372	1362.898688883772	1
0	5373	1363.351930240748	0
0	5384	1365.008139061394	1
0	5385	1365.435523003288	0
0	5412	1374.032811217521	1
0	5413	1374.141126677639	0
0	5420	1375.182792184673	1
0	5422	1375.299862224001	2
0	5423	1375.302673153335	1
0	5425	1375.802673153335	0
0	5444	1379.955930041832	1
0	5445	1380.125823347778	0
0	5448	1380.343127509073	1
0	5449	1380.625823347778	0
0	5456	1381.625044459788	1
0	5457	1382.094636466024	0
0	5460	1382.449616182967	1
0	5461	1382.594636466024	0
0	5472	1384.412735417415	1
0	5473	1384.796443750648	0
0	5476	1385.169589734641	1
0	5477	1385.296443750648	0
0	5484	1386.190862432698	1
0	5485	1386.601776475207	0
0	5500	1389.53862349544	1
0	5501	1390.008540699905	0
0	5512	1395.046130990834	1
0	5513	1395.437099127212	0
0	5528	1400.459793059895	1
0	5530	1400.461001361773	2
0	5531	1400.930168307598	1
0	5534	1401.226540444047	2
0	5535	1401.430168307598	1
0	5537	1401.930168307598	0
0	5560	1410.478208158376	1
0	5561	1410.523920581314	0
0	5568	1415.527216782415	1
0	5569	1415.815795607437	0
0	5572	1415.966070959457	1
0	5574	1415.98537906465	2
0	5575	1416.315795607437	1
0	5577	1416.815795607437	0
0	5600	1423.666322953172	1
0	5601	1423.699169726712	0
0	5608	1424.921987017504	1
0	5609	1425.169847341071	0
0	5612	1425.289255185002	1
0	5614	1425.373215225035	2
0	5615	1425.669847341071	1
0	5618	1426.143846285836	2
0	5619	1426.169847341071	1
0	5622	1426.233017368104	2
0	5624	1426.554015025997	3
0	5625	1426.669847341071	2
0	5628	1426.8042683064	3
0	5630	1426.812996202707	4
0	5632	1426.918372343337	5
0	5634	1426.943633465138	6
0	5635	1427.169847341071	5
0	5638	1427.251572260719	6
0	5640	1427.407391446829	7
0	5642	1427.475830322212	8
0	5643	1427.669847341071	7
0	5645	1428.169847341071	6
0	5648	1428.196882726632	7
0	5650	1428.26473860468	8
0	5652	1428.516613389374	9
0	5653	1428.669847341071	8
0	5655	1429.169847341071	7
0	5657	1429.669847341071	6
0	5659	1430.169847341071	5
0	5662	1430.456475148965	6
0	5663	1430.669847341071	5
0	5666	1430.917700926572	6
0	5668	1431.094581632694	7
0	5670	1431.151265513852	8
0	5671	1431.169847341071	7
0	5673	1431.669847341071	6
0	5676	1431.971524506462	7
0	5677	1432.169847341071	6
0	5679	1432.669847341071	5
0	5681	1433.169847341071	4
0	5683	1433.669847341071	3
0	5685	1434.169847341071	2
0	5688	1434.392861152906	3
0	5689	1434.669847341071	2
0	5691	1435.169847341071	1
0	5693	1435.669847341071	0
0	5696	1435.877675226954	1
0	5697	1436.169847341071	0
0	5712	1441.091849527515	1
0	5713	1441.425359333596	0
0	5716	1441.495602434629	1
0	5718	1441.718241286664	2
0	5719	1441.925359333596	1
0	5721	1442.425359333596	0
0	5740	1445.200766505546	1
0	5741	1445.341670822723	0
0	5744	1445.630688708285	1
0	5746	1445.703701252127	2
0	5747	1445.841670822723	1
0	5749	1446.341670822723	0
0	5764	1449.654424283442	1
0	5765	1449.662878924689	0
0	5772	1452.449447860357	1
0	5774	1452.478827807639	2
0	5775	1452.774625860323	1
0	5778	1452.909929634855	2
0	5779	1453.274625860323	1
0	5781	1453.774625860323	0
0	5788	1455.270835605964	1
0	5789	1455.670330082231	0
0	5792	1455.769351937878	1
0	5793	1456.170330082231	0
0	5812	1462.414078058175	1
0	5813	1462.699995863512	0
0	5832	1472.030521296777	1
0	5833	1472.077107878445	0
0	5848	1474.834850498748	1
0	5849	1474.862621750104	0
0	5852	1475.127913996536	1
0	5853	1475.362621750104	0
0	5856	1475.581905443286	1
0	5857	1475.862621750104	0
0	5864	1476.685142264196	1
0	5866	1476.826594369186	2
0	5867	1476.882814126147	1
0	5869	1477.382814126147	0
0	5872	1477.511714447124	1
0	5874	1477.73550321926	2
0	5875	1477.882814126147	1
0	5877	1478.382814126147	0
0	5880	1478.880389668729	1
0	5881	1478.882814126147	0
0	5888	1479.926865221066	1
0	5890	1480.029444480963	2
0	5891	1480.10204841642	1
0	5893	1480.60204841642	0
0	5896	1480.772580135268	1
0	5897	1481.10204841642	0
0	5904	1482.806996011611	1
0	5905	1483.182135153772	0
0	5908	1483.310422127065	1
0	5910	1483.484591348172	2
0	5911	1483.682135153772	1
0	5914	1483.749961305947	2
0	5916	1483.797898505529	3
0	5917	1484.182135153772	2
0	5920	1484.678416943838	3
0	5921	1484.682135153772	2
0	5923	1485.182135153772	1
0	5925	1485.682135153772	0
0	5936	1489.587245432204	1
0	5937	1490.083377609017	0
0	5940	1490.526264035727	1
0	5941	1490.583377609017	0
0	5944	1490.722984724356	1
0	5945	1491.083377609017	0
0	5956	1492.723569764247	1
0	5958	1492.808441175287	2
0	5959	1493.037120130056	1
0	5961	1493.537120130056	0
0	5964	1493.967957141293	1
0	5965	1494.037120130056	0
0	5988	1505.868441698696	1
0	5989	1505.970380693708	0
0	6000	1508.557219586475	1
0	6001	1508.699967791206	0
0	6032	1518.7145700083	1
0	6033	1518.903677945196	0
0	6044	1522.127639519069	1
0	6046	1522.592725262817	2
0	6047	1522.594184759942	1
0	6049	1523.094184759942	0
0	6052	1523.147756988131	1
0	6054	1523.149141300737	2
0	6056	1523.247740800936	3
0	6058	1523.532340984926	4
0	6059	1523.594184759942	3
0	6061	1524.094184759942	2
0	6063	1524.594184759942	1
0	6065	1525.094184759942	0
0	6072	1527.757325355476	1
0	6073	1527.874257288391	0
0	6092	1532.669533144975	1
0	6093	1532.716248674161	0
0	6104	1534.768966034048	1
0	6105	1534.859338873967	0
0	6136	1550.243449019883	1
0	6137	1550.270655475172	0
0	6148	1555.953574031623	1
0	6149	1556.386277064419	0
0	6164	1560.068719883568	1
0	6165	1560.305964473628	0
0	6168	1560.349611039065	1
0	6169	1560.805964473628	0
0	6172	1561.123683081747	1
0	6173	1561.305964473628	0
0	6176	1561.367612751608	1
0	6177	1561.805964473628	0
0	6184	1563.032151333647	1
0	6185	1563.350572115986	0
0	6200	1568.592004182316	1
0	6201	1568.743755548135	0
0	6212	1570.070685616087	1
0	6213	1570.354985774811	0
0	6216	1570.751820894186	1
0	6217	1570.854985774811	0
0	6220	1570.981946662343	1
0	6221	1571.354985774811	0
0	6240	1575.8395979411	1
0	6241	1576.189852732842	0
0	6252	1580.442625253009	1
0	6253	1580.584772580681	0
0	6260	1582.375473465066	1
0	6261	1582.793210899595	0
0	6272	1585.485287705504	1
0	6273	1585.877241638631	0
0	6280	1589.361335431619	1
0	6281	1589.691278342826	0
0	6288	1591.247696848165	1
0	6289	1591.385005711959	0
0	6292	1591.531446950705	1
0	6294	1591.609796751798	2
0	6296	1591.647042844101	3
0	6297	1591.885005711959	2
0	6300	1592.199842177605	3
0	6301	1592.385005711959	2
0	6304	1592.722271420953	3
0	6306	1592.836132078259	4
0	6307	1592.885005711959	3
0	6309	1593.385005711959	2
0	6311	1593.885005711959	1
0	6313	1594.385005711959	0
0	6328	1596.626383913735	1
0	6329	1596.843282084745	0
0	6332	1596.960579328696	1
0	6333	1597.343282084745	0
0	6344	1600.731041092751	1
0	6345	1601.106015543908	0
0	6364	1609.578847372496	1
0	6366	1610.076093842338	2
0	6367	1610.07616671416	1
0	6369	1610.57616671416	0
0	6376	1613.034396461015	1
0	6377	1613.257088932085	0
0	6384	1614.442968711679	1
0	6385	1614.654755543771	0
0	6388	1614.697173374389	1
0	6389	1615.154755543771	0
0	6392	1615.35764726867	1
0	6394	1615.382711856223	2
0	6396	1615.423526356574	3
0	6398	1615.431022701023	4
0	6399	1615.654755543771	3
0	6401	1616.154755543771	2
0	6404	1616.451855120076	3
0	6405	1616.654755543771	2
0	6407	1617.154755543771	1
0	6409	1617.654755543771	0
0	6424	1621.254708063634	1
0	6425	1621.280846484639	0
0	6456	1631.173170183135	1
0	6457	1631.239403993628	0
0	6476	1637.366212607257	1
0	6477	1637.399340429795	0
0	6480	1637.808483796265	1
0	6481	1637.899340429795	0
0	6496	1640.83469722662	1
0	6498	1640.923601451516	2
0	6499	1640.994219035084	1
0	6501	1641.494219035084	0
0	6508	1643.263748876562	1
0	6510	1643.383013746537	2
0	6512	1643.467887470348	3
0	6513	1643.498253833914	2
0	6516	1643.706696029798	3
0	6517	1643.998253833914	2
0	6520	1644.095329596029	3
0	6522	1644.297486532281	4
0	6523	1644.498253833914	3
0	6525	1644.998253833914	2
0	6528	1645.242504522893	3
0	6529	1645.498253833914	2
0	6532	1645.758386245419	3
0	6533	1645.998253833914	2
0	6536	1646.216660808474	3
0	6537	1646.498253833914	2
0	6539	1646.998253833914	1
0	6541	1647.498253833914	0
0	6544	1647.584066527477	1
0	6545	1647.998253833914	0
0	6564	1651.586467013294	1
0	6566	1651.587013133253	2
0	6568	1651.770987076883	3
0	6569	1651.930174370793	2
0	6572	1652.325071221731	3
0	6574	1652.391676358972	4
0	6575	1652.430174370793	3
0	6578	1652.457339544149	4
0	6580	1652.764316926691	5
0	6581	1652.930174370793	4
0	6584	1652.997830632729	5
0	6586	1653.426088661541	6
0	6587	1653.430174370793	5
0	6589	1653.930174370793	4
0	6591	1654.430174370793	3
0	6593	1654.930174370793	2
0	6595	1655.430174370793	1
0	6597	1655.930174370793	0
0	6600	1656.120146346523	1
0	6602	1656.212533865278	2
0	6603	1656.430174370793	1
0	6606	1656.455112824154	2
0	6607	1656.930174370793	1
0	6610	1657.376992082433	2
0	6611	1657.430174370793	1
0	6613	1657.930174370793	0
0	6628	1662.379441210966	1
0	6630	1662.552778732194	2
0	6631	1662.708389391925	1
0	6634	1662.97153808445	2
0	6635	1663.208389391925	1
0	6637	1663.708389391925	0
0	6640	1663.902211641073	1
0	6641	1664.208389391925	0
0	6648	1665.324326761657	1
0	6649	1665.701410973506	0
0	6676	1673.162286961117	1
0	6677	1673.636192996154	0
0	6680	1673.815030581659	1
0	6682	1673.874059634515	2
0	6683	1674.136192996154	1
0	6685	1674.636192996154	0
0	6692	1676.421002281253	1
0	6694	1676.47161049057	2
0	6695	1676.837554263691	1
0	6698	1677.199633373564	2
0	6699	1677.337554263691	1
0	6702	1677.546200382693	2
0	6703	1677.837554263691	1
0	6705	1678.337554263691	0
0	6716	1680.241387154188	1
0	6717	1680.708581599465	0
0	6720	1680.782859647852	1
0	6721	1681.208581599465	0
0	6724	1681.392930439128	1
0	6726	1681.582822196591	2
0	6727	1681.708581599465	1
0	6729	1682.208581599465	0
0	6736	1683.438040940245	1
0	6737	1683.824636218053	0
0	6784	1696.689187170823	1
0	6785	1696.721563093555	0
0	6796	1699.069904359067	1
0	6797	1699.127971170194	0
0	6816	1708.277243168171	1
0	6818	1708.447620526857	2
0	6819	1708.772076882067	1
0	6821	1709.272076882067	0
0	6824	1709.632306677512	1
0	6825	1709.772076882067	0
0	6836	1713.338972558407	1
0	6837	1713.804307855845	0
0	6848	1716.937852989386	1
0	6849	1717.243046892865	0
0	6864	1720.326755646297	1
0	6866	1720.463364505988	2
0	6867	1720.675565219853	1
0	6870	1720.908082960943	2
0	6871	1721.175565219853	1
0	6873	1721.675565219853	0
0	6876	1721.879550914512	1
0	6877	1722.175565219853	0
0	6884	1724.919595944816	1
0	6885	1725.146031082567	0
0	6896	1728.816579865318	1
0	6897	1728.984127943734	0
0	6904	1730.414875971401	1
0	6905	1730.499919388676	0
0	6908	1730.527210652053	1
0	6909	1730.999919388676	0
0	6912	1731.444033689349	1
0	6913	1731.499919388676	0
0	6928	1736.43513122263	1
0	6930	1736.727659295553	2
0	6931	1736.775195618761	1
0	6934	1737.024606354334	2
0	6936	1737.249013557865	3
0	6937	1737.275195618761	2
0	6939	1737.775195618761	1
0	6941	1738.275195618761	0
0	6964	1745.17711770152	1
0	6965	1745.232219232535	0
0	6968	1745.382320519849	1
0	6969	1745.732219232535	0
0	6984	1748.657259285165	1
0	6985	1748.762333993074	0
0	6992	1750.696443571383	1
0	6993	1750.815852672071	0
0	6996	1750.924690194581	1
0	6997	1751.315852672071	0
0	7000	1751.516864998559	1
0	7001	1751.815852672071	0
0	7012	1753.985781830028	1
0	7013	1754.175979695469	0
0	7016	1754.427932001957	1
0	7017	1754.675979695469	0
0	7020	1754.782130616043	1
0	7021	1755.175979695469	0
0	7036	1762.434380478177	1
0	7037	1762.887274640689	0
0	7044	1763.945086523443	1
0	7045	1764.234669620209	0
0	7048	1764.287454936305	1
0	7049	1764.734669620209	0
0	7052	1765.023248263317	1
0	7053	1765.234669620209	0
0	7060	1766.356905611064	1
0	7061	1766.385309890614	0
0	7068	1768.144513868269	1
0	7069	1768.367310429752	0
0	7080	1771.308310368611	1
0	7081	1771.385906919208	0
0	7104	1780.797856568406	1
0	7105	1781.145280420266	0
0	7116	1789.224410695489	1
0	7117	1789.27360088486	0
0	7124	1789.852881254544	1
0	7125	1790.306591748626	0
0	7128	1790.519212130568	1
0	7129	1790.806591748626	0
0	7132	1790.912694527536	1
0	7133	1791.306591748626	0
0	7136	1791.507570783428	1
0	7137	1791.806591748626	0
0	7140	1792.194566419335	1
0	7141	1792.306591748626	0
0	7148	1793.222518218982	1
0	7149	1793.533539702264	0
0	7156	1794.282098329173	1
0	7157	1794.693183966828	0
0	7160	1794.971611251095	1
0	7161	1795.193183966828	0
0	7164	1795.5744221591	1
0	7165	1795.693183966828	0
0	7188	1803.60329103415	1
0	7189	1803.730071305795	0
0	7192	1804.142330542687	1
0	7193	1804.230071305795	0
0	7208	1809.625185602681	1
0	7209	1809.697180452221	0
0	7216	1810.485149169958	1
0	7217	1810.747583627027	0
0	7220	1810.79251644271	1
0	7222	1810.853735874833	2
0	7223	1811.247583627027	1
0	7226	1811.710658976318	2
0	7227	1811.747583627027	1
0	7229	1812.247583627027	0
0	7236	1814.015139265197	1
0	7237	1814.29834923945	0
0	7248	1818.002653631389	1
0	7249	1818.374683686523	0
0	7256	1821.173307252515	1
0	7257	1821.266130071977	0
0	7264	1822.442788890168	1
0	7265	1822.749965901368	0
0	7272	1823.856934968042	1
0	7274	1824.036646027285	2
0	7275	1824.233751595754	1
0	7277	1824.733751595754	0
0	7288	1827.775673592377	1
0	7289	1828.217114744054	0
0	7292	1828.46354836386	1
0	7293	1828.717114744054	0
0	7300	1832.491593141715	1
0	7302	1832.593017925105	2
0	7303	1832.900154493674	1
0	7306	1833.081507211495	2
0	7307	1833.400154493674	1
0	7309	1833.900154493674	0
0	7328	1838.537875690131	1
0	7329	1838.579140348795	0
0	7332	1838.90371052927	1
0	7333	1839.079140348795	0
0	7336	1839.322781332839	1
0	7337	1839.579140348795	0
0	7352	1846.457377616324	1
0	7353	1846.579663910786	0
0	7380	1853.524403587699	1
0	7381	1853.971877497341	0
0	7388	1855.948581261501	1
0	7389	1856.338678486312	0
0	7392	1856.757464950118	1
0	7393	1856.838678486312	0
0	7412	1862.352413626456	1
0	7414	1862.391733876385	2
0	7415	1862.572656824064	1
0	7417	1863.072656824064	0
0	7432	1868.794889950588	1
0	7433	1869.050433057991	0
0	7436	1869.066713469602	1
0	7437	1869.550433057991	0
0	7448	1872.47918019236	1
0	7450	1872.894326586848	2
0	7451	1872.935307514408	1
0	7454	1873.29939981603	2
0	7455	1873.435307514408	1
0	7457	1873.935307514408	0
0	7464	1874.70450965811	1
0	7465	1875.099445825209	0
0	7468	1875.583005148608	1
0	7469	1875.599445825209	0
0	7484	1879.646313536947	1
0	7485	1879.856677839019	0
0	7488	1880.000402337043	1
0	7489	1880.356677839019	0
0	7496	1882.856621618221	1
0	7497	1883.19300220471	0
0	7504	1888.219530576763	1
0	7505	1888.318654363117	0
0	7508	1888.399294664936	1
0	7509	1888.818654363117	0
0	7520	1890.951225277502	1
0	7521	1891.299955832458	0
0	7528	1893.200426998128	1
0	7529	1893.44248176884	0
0	7532	1893.627674614433	1
0	7534	1893.699011620848	2
0	7535	1893.94248176884	1
0	7538	1893.97692466765	2
0	7539	1894.44248176884	1
0	7541	1894.94248176884	0
0	7544	1895.200114408201	1
0	7545	1895.44248176884	0
0	7560	1901.183627297086	1
0	7561	1901.311345513948	0
0	7572	1903.650659080311	1
0	7573	1903.652370263099	0
0	7576	1904.06009839298	1
0	7577	1904.152370263099	0
0	7580	1904.557568370403	1
0	7581	1904.652370263099	0
0	7600	1910.5993520047	1
0	7601	1910.853882522559	0
0	7604	1910.983423576397	1
0	7605	1911.353882522559	0
0	7616	1918.475857260572	1
0	7617	1918.798692849656	0
0	7624	1921.041279848063	1
0	7625	1921.197604463071	0
0	7632	1922.446552329516	1
0	7633	1922.748351008965	0
0	7636	1923.027759632628	1
0	7637	1923.248351008965	0
0	7640	1923.451651972952	1
0	7642	1923.683957337101	2
0	7643	1923.748351008965	1
0	7645	1924.248351008965	0
0	7648	1924.338000899619	1
0	7649	1924.748351008965	0
0	7680	1933.555282518574	1
0	7682	1933.680892867918	2
0	7683	1933.806687994302	1
0	7685	1934.306687994302	0
0	7688	1934.656121910352	1
0	7689	1934.806687994302	0
0	7696	1936.310202971168	1
0	7697	1936.691986776132	0
0	7700	1936.986672851037	1
0	7701	1937.191986776132	0
0	7704	1937.600953129654	1
0	7705	1937.691986776132	0
0	7712	1939.914989025719	1
0	7713	1940.025888967314	0
0	7716	1940.059805160202	1
0	7718	1940.440334870296	2
0	7719	1940.525888967314	1
0	7721	1941.025888967314	0
0	7740	1946.513706442854	1
0	7742	1946.585398660907	2
0	7744	1946.914060718576	3
0	7745	1946.93860527199	2
0	7747	1947.43860527199	1
0	7749	1947.93860527199	0
0	7764	1953.090000430093	1
0	7765	1953.183507862528	0
0	7768	1953.284191408874	1
0	7769	1953.683507862528	0
0	7788	1961.343294064342	1
0	7789	1961.38593615289	0
0	7800	1971.68358735088	1
0	7801	1971.963863605378	0
0	7804	1972.313045252212	1
0	7805	1972.463863605378	0
0	7812	1973.157139953012	1
0	7814	1973.499979678872	2
0	7815	1973.578565726056	1
0	7817	1974.078565726056	0
0	7824	1975.627796471488	1
0	7825	1975.765141458447	0
0	7844	1981.365621541027	1
0	7845	1981.855891035096	0
0	7852	1983.148327074173	1
0	7853	1983.501731281623	0
0	7884	1992.27776344023	1
0	7885	1992.330015165472	0
0	7904	1997.947343620837	1
0	7905	1998.206754593081	0
0	7908	1998.481439608803	1
0	7909	1998.706754593081	0
0	7920	2000.504902952355	1
0	7922	2000.53748360594	2
0	7924	2000.927315852458	3
0	7926	2000.990250334321	4
0	7927	2000.992657113512	3
0	7930	2001.25105349055	4
0	7931	2001.492657113512	3
0	7933	2001.992657113512	2
0	7935	2002.492657113512	1
0	7937	2002.992657113512	0
0	7940	2003.14364481962	1
0	7941	2003.492657113512	0
0	7944	2003.850612983674	1
0	7945	2003.992657113512	0
0	7956	2006.636723733089	1
0	7958	2006.739505765109	2
0	7960	2006.865212653874	3
0	7961	2006.874824142507	2
0	7963	2007.374824142507	1
0	7966	2007.588658653939	2
0	7968	2007.630220772737	3
0	7969	2007.874824142507	2
0	7971	2008.374824142507	1
0	7973	2008.874824142507	0
0	7984	2011.330481452313	1
0	7985	2011.570872872636	0
0	8008	2019.067918252322	1
0	8010	2019.524010018049	2
0	8011	2019.557803576697	1
0	8013	2020.057803576697	0
0	8016	2020.169941971622	1
0	8017	2020.557803576697	0
0	8032	2024.909053753338	1
0	8033	2025.3640820854	0
0	8036	2025.762585423685	1
0	8037	2025.8640820854	0
0	8044	2028.075657737845	1
0	8045	2028.378869271724	0
0	8048	2028.809796554177	1
0	8049	2028.878869271724	0
0	8052	2028.932938061088	1
0	8054	2028.964078994538	2
0	8056	2029.244290472643	3
0	8057	2029.378869271724	2
0	8060	2029.498426385504	3
0	8062	2029.631145415351	4
0	8063	2029.878869271724	3
0	8065	2030.378869271724	2
0	8067	2030.878869271724	1
0	8069	2031.378869271724	0
0	8076	2032.955924432493	1
0	8077	2033.203234055575	0
0	8088	2034.718784690249	1
0	8089	2035.105086661829	0
0	8096	2037.084709474985	1
0	8097	2037.245671647324	0
0	8108	2039.312386753826	1
0	8110	2039.333559385682	2
0	8111	2039.779495484022	1
0	8113	2040.279495484022	0
0	8116	2040.53273508174	1
0	8117	2040.779495484022	0
0	8120	2041.063109746612	1
0	8122	2041.111031663706	2
0	8123	2041.279495484022	1
0	8125	2041.779495484022	0
0	8128	2041.78331527537	1
0	8129	2042.279495484022	0
0	8136	2048.290035345361	1
0	8137	2048.510747443349	0
0	8148	2050.974486749897	1
0	8149	2051.211325853291	0
0	8160	2053.316357631122	1
0	8161	2053.54738710278	0
0	8180	2058.760088782543	1
0	8181	2059.000206830462	0
0	8188	2061.870856464417	1
0	8189	2062.227045109625	0
0	8216	2072.017997784996	1
0	8218	2072.282462346913	2
0	8219	2072.31300281094	1
0	8221	2072.81300281094	0
0	8228	2077.896546241859	1
0	8230	2078.03506808397	2
0	8231	2078.258781198317	1
0	8234	2078.466351416119	2
0	8235	2078.758781198317	1
0	8238	2079.103983135373	2
0	8239	2079.258781198317	1
0	8242	2079.395271618768	2
0	8244	2079.465793983361	3
0	8246	2079.54133044427	4
0	8247	2079.758781198317	3
0	8249	2080.258781198317	2
0	8251	2080.758781198317	1
0	8253	2081.258781198317	0
0	8268	2087.094809898248	1
0	8269	2087.305510570078	0
0	8280	2089.394613146058	1
0	8281	2089.46384123298	0
0	8284	2089.734712729203	1
0	8285	2089.96384123298	0
0	8288	2090.028255132548	1
0	8289	2090.46384123298	0
0	8296	2092.877296120985	1
0	8297	2093.068998569721	0
0	8300	2093.475513495752	1
0	8301	2093.568998569721	0
0	8304	2093.611670069124	1
0	8305	2094.068998569721	0
0	8316	2096.521899499743	1
0	8318	2096.674837736489	2
0	8319	2096.976885018915	1
0	8322	2097.442281659526	2
0	8323	2097.476885018915	1
0	8326	2097.823147813886	2
0	8327	2097.976885018915	1
0	8330	2098.425961718264	2
0	8331	2098.476885018915	1
0	8333	2098.976885018915	0
0	8336	2099.411351962815	1
0	8337	2099.476885018915	0
0	8340	2099.806051762034	1
0	8341	2099.976885018915	0
0	8348	2101.463274127773	1
0	8350	2101.487846273548	2
0	8351	2101.606328491489	1
0	8354	2101.798166888254	2
0	8355	2102.106328491489	1
0	8358	2102.360489313221	2
0	8360	2102.5830449502	3
0	8361	2102.606328491489	2
0	8363	2103.106328491489	1
0	8365	2103.606328491489	0
0	8368	2103.638955849515	1
0	8369	2104.106328491489	0
0	8372	2104.317475397997	1
0	8373	2104.606328491489	0
0	8380	2106.659803228725	1
0	8381	2106.736472822671	0
0	8388	2107.706153341628	1
0	8389	2107.804779066413	0
0	8396	2111.255085443775	1
0	8398	2111.563831211717	2
0	8400	2111.577793279972	3
0	8402	2111.59139405596	4
0	8403	2111.686584761993	3
0	8405	2112.186584761993	2
0	8407	2112.686584761993	1
0	8409	2113.186584761993	0
0	8424	2115.508979847113	1
0	8425	2115.713112639926	0
0	8440	2119.242069565314	1
0	8442	2119.466010525759	2
0	8443	2119.477097429596	1
0	8446	2119.837986534185	2
0	8447	2119.977097429596	1
0	8449	2120.477097429596	0
0	8460	2124.18714990056	1
0	8461	2124.556286964781	0
0	8476	2127.012266230084	1
0	8477	2127.416054735914	0
0	8484	2128.493295171433	1
0	8485	2128.732870101944	0
0	8488	2129.035674865156	1
0	8489	2129.232870101944	0
0	8496	2130.197499829715	1
0	8497	2130.692175631312	0
0	8500	2130.944918505237	1
0	8502	2130.956338591781	2
0	8503	2131.192175631312	1
0	8505	2131.692175631312	0
0	8508	2131.754967422218	1
0	8509	2132.192175631312	0
0	8512	2132.470813869537	1
0	8513	2132.692175631312	0
0	8520	2134.342993164806	1
0	8522	2134.405696737059	2
0	8524	2134.458122755911	3
0	8525	2134.756027987122	2
0	8527	2135.256027987122	1
0	8529	2135.756027987122	0
0	8552	2144.378888222138	1
0	8554	2144.409562097821	2
0	8556	2144.410226534045	3
0	8557	2144.713981466197	2
0	8559	2145.213981466197	1
0	8561	2145.713981466197	0
0	8572	2149.688961179365	1
0	8574	2150.015141976888	2
0	8575	2150.160580230586	1
0	8578	2150.2202589524	2
0	8580	2150.425928072362	3
0	8581	2150.660580230586	2
0	8583	2151.160580230586	1
0	8585	2151.660580230586	0
0	8596	2154.000006431008	1
0	8598	2154.115309254867	2
0	8599	2154.364498603368	1
0	8602	2154.622787418873	2
0	8603	2154.864498603368	1
0	8606	2154.930195569033	2
0	8607	2155.364498603368	1
0	8609	2155.864498603368	0
0	8612	2156.357516933704	1
0	8613	2156.364498603368	0
0	8636	2164.158781165877	1
0	8637	2164.44454024407	0
0	8640	2164.666143821952	1
0	8641	2164.94454024407	0
0	8644	2165.197261341067	1
0	8645	2165.44454024407	0
0	8656	2167.52856614158	1
0	8658	2167.807782179863	2
0	8659	2167.876629282972	1
0	8661	2168.376629282972	0
0	8688	2183.647288085808	1
0	8689	2184.103434214137	0
0	8692	2184.146459839188	1
0	8693	2184.603434214137	0
0	8708	2190.676396804139	1
0	8709	2190.886543368548	0
0	8716	2191.591784646239	1
0	8717	2191.919947291452	0
0	8720	2192.02908850227	1
0	8721	2192.419947291452	0
0	8728	2193.703043297081	1
0	8729	2194.074894711183	0
0	8740	2198.785714875428	1
0	8741	2199.221671357358	0
0	8748	2201.054091566859	1
0	8750	2201.159731842415	2
0	8751	2201.448728074483	1
0	8754	2201.542307716482	2
0	8755	2201.948728074483	1
0	8757	2202.448728074483	0
0	8768	2203.728854143621	1
0	8769	2204.211646450475	0
0	8788	2212.553504393806	1
0	8789	2212.928145531149	0
0	8792	2213.357446961551	1
0	8793	2213.428145531149	0
0	8796	2213.797992741712	1
0	8797	2213.928145531149	0
0	8800	2214.148898413418	1
0	8801	2214.428145531149	0
0	8804	2214.458531639188	1
0	8805	2214.928145531149	0
0	8816	2219.06407725628	1
0	8818	2219.242676299344	2
0	8819	2219.254959566075	1
0	8821	2219.754959566075	0
0	8856	2236.752683440989	1
0	8857	2237.184325086042	0
0	8860	2237.604694918403	1
0	8861	2237.684325086042	0
0	8880	2240.324389782085	1
0	8881	2240.597745063651	0
0	8892	2243.368070827111	1
0	8893	2243.63401378082	0
0	8896	2243.810860749156	1
0	8897	2244.13401378082	0
0	8900	2244.281425225365	1
0	8902	2244.460174278805	2
0	8903	2244.63401378082	1
0	8905	2245.13401378082	0
0	8908	2245.484977523727	1
0	8909	2245.63401378082	0
0	8912	2246.067252854879	1
0	8913	2246.13401378082	0
0	8920	2247.63104485435	1
0	8922	2247.689068285512	2
0	8923	2247.826148860031	1
0	8925	2248.326148860031	0
0	8928	2248.427343414431	1
0	8929	2248.826148860031	0
0	8936	2252.286862046517	1
0	8938	2252.689509011211	2
0	8939	2252.7510689881	1
0	8941	2253.2510689881	0
0	8948	2255.287186321342	1
0	8949	2255.556434484365	0
0	8956	2257.34896262377	1
0	8957	2257.481987745888	0
0	8980	2268.913510075194	1
0	8982	2269.030630914251	2
0	8983	2269.132104340831	1
0	8986	2269.255145426336	2
0	8987	2269.632104340831	1
0	8989	2270.132104340831	0
0	8992	2270.251648366783	1
0	8994	2270.329496572416	2
0	8995	2270.632104340831	1
0	8997	2271.132104340831	0
0	9004	2276.992432534381	1
0	9005	2277.041110948803	0
0	9020	2284.388760705987	1
0	9022	2284.525750497542	2
0	9023	2284.566590339166	1
0	9026	2284.985393525586	2
0	9027	2285.066590339166	1
0	9029	2285.566590339166	0
0	9032	2285.860525111161	1
0	9033	2286.066590339166	0
0	9040	2287.295712458917	1
0	9041	2287.793645693074	0
0	9048	2288.708048905015	1
0	9049	2288.986265255682	0
0	9052	2289.239814836794	1
0	9053	2289.486265255682	0
0	9060	2292.545692176831	1
0	9061	2292.866183480842	0
0	9064	2292.94682752639	1
0	9065	2293.366183480842	0
0	9080	2297.391701316432	1
0	9081	2297.562002796497	0
0	9084	2297.688448102223	1
0	9085	2298.062002796497	0
0	9092	2300.911762346667	1
0	9093	2301.141540247145	0
0	9104	2303.210635047751	1
0	9105	2303.310678007338	0
0	9108	2303.726719773443	1
0	9109	2303.810678007338	0
0	9116	2305.367158231348	1
0	9118	2305.48163296074	2
0	9119	2305.795790620729	1
0	9121	2306.295790620729	0
0	9128	2308.846944135141	1
0	9129	2308.848839033447	0
0	9136	2310.643216264285	1
0	9137	2310.893191978717	0
0	9140	2311.329483421806	1
0	9141	2311.393191978717	0
0	9148	2312.876496608489	1
0	9149	2312.980631185955	0
0	9152	2312.984578915771	1
0	9154	2313.184831870689	2
0	9155	2313.480631185955	1
0	9158	2313.690712801453	2
0	9160	2313.872581943536	3
0	9161	2313.980631185955	2
0	9164	2314.196443650888	3
0	9166	2314.471525964647	4
0	9167	2314.480631185955	3
0	9169	2314.980631185955	2
0	9172	2315.177440138491	3
0	9174	2315.426579033661	4
0	9175	2315.480631185955	3
0	9178	2315.857204539757	4
0	9179	2315.980631185955	3
0	9181	2316.480631185955	2
0	9183	2316.980631185955	1
0	9186	2317.094046802839	2
0	9187	2317.480631185955	1
0	9189	2317.980631185955	0
0	9192	2318.319619804777	1
0	9193	2318.480631185955	0
0	9200	2319.812588799248	1
0	9202	2320.264331005429	2
0	9203	2320.28770471761	1
0	9205	2320.78770471761	0
0	9208	2321.269417228262	1
0	9209	2321.28770471761	0
0	9212	2321.443049102051	1
0	9214	2321.705156070585	2
0	9215	2321.78770471761	1
0	9217	2322.28770471761	0
0	9220	2322.740045500678	1
0	9221	2322.78770471761	0
0	9224	2323.052989354381	1
0	9225	2323.28770471761	0
0	9228	2323.457701219672	1
0	9229	2323.78770471761	0
0	9248	2332.809034772028	1
0	9249	2332.928432694042	0
0	9264	2341.258678130516	1
0	9266	2341.264007345596	2
0	9267	2341.648873483483	1
0	9269	2342.148873483483	0
0	9272	2342.269079181893	1
0	9274	2342.331311399121	2
0	9275	2342.648873483483	1
0	9277	2343.148873483483	0
0	9288	2346.175989267615	1
0	9290	2346.30261004531	2
0	9291	2346.506412627555	1
0	9294	2346.8577400905	2
0	9295	2347.006412627555	1
0	9297	2347.506412627555	0
0	9300	2347.763050432285	1
0	9301	2348.006412627555	0
0	9308	2350.433471565169	1
0	9309	2350.495243874889	0
0	9312	2350.542816078706	1
0	9314	2350.577171085864	2
0	9316	2350.595433185356	3
0	9318	2350.68194596182	4
0	9319	2350.995243874889	3
0	9321	2351.495243874889	2
0	9324	2351.574972851391	3
0	9325	2351.995243874889	2
0	9327	2352.495243874889	1
0	9329	2352.995243874889	0
0	9332	2353.026691374891	1
0	9333	2353.495243874889	0
0	9336	2353.598562139894	1
0	9337	2353.995243874889	0
0	9348	2357.500511564316	1
0	9349	2357.549174297668	0
0	9356	2360.353782970506	1
0	9357	2360.570395120333	0
0	9360	2360.709249570621	1
0	9361	2361.070395120333	0
0	9364	2361.389659423159	1
0	9365	2361.570395120333	0
0	9368	2361.881342968333	1
0	9370	2362.046551517854	2
0	9371	2362.070395120333	1
0	9373	2362.570395120333	0
0	9376	2362.712613019769	1
0	9377	2363.070395120333	0
0	9408	2375.625900392601	1
0	9409	2375.632343953957	0
0	9416	2376.852693782964	1
0	9417	2377.046484215698	0
0	9432	2382.131894680489	1
0	9433	2382.48623468232	0
0	9444	2385.027002770686	1
0	9445	2385.199648404722	0
0	9472	2394.942311372378	1
0	9473	2395.220428354314	0
0	9480	2397.29336225019	1
0	9481	2397.335326205837	0
0	9492	2400.693651295958	1
0	9493	2400.909140464202	0
0	9516	2409.803978622622	1
0	9517	2409.913354621331	0
0	9536	2416.486577767961	1
0	9537	2416.663148092543	0
0	9544	2418.569143833545	1
0	9546	2418.56920440534	2
0	9547	2418.607864370648	1
0	9550	2419.047069094726	2
0	9551	2419.107864370648	1
0	9553	2419.607864370648	0
0	9556	2420.088950993622	1
0	9557	2420.107864370648	0
0	9576	2424.330927167571	1
0	9577	2424.493050590658	0
0	9584	2425.852860932624	1
0	9586	2426.007795248312	2
0	9587	2426.333206575446	1
0	9590	2426.517325685649	2
0	9591	2426.833206575446	1
0	9594	2426.875872270255	2
0	9596	2427.244804825011	3
0	9597	2427.333206575446	2
0	9599	2427.833206575446	1
0	9601	2428.333206575446	0
0	9604	2428.654849115749	1
0	9605	2428.833206575446	0
0	9612	2431.925302036848	1
0	9613	2432.005351325576	0
0	9636	2439.395099980191	1
0	9637	2439.540403554706	0
0	9640	2439.817135367345	1
0	9641	2440.040403554706	0
0	9644	2440.435006986056	1
0	9645	2440.540403554706	0
0	9664	2445.66365306112	1
0	9665	2446.05983539141	0
0	9676	2448.807720220274	1
0	9677	2448.820384749412	0
0	9680	2448.849771923997	1
0	9682	2448.881855744527	2
0	9683	2449.320384749412	1
0	9685	2449.820384749412	0
0	9700	2454.547091486688	1
0	9702	2454.599445673785	2
0	9704	2454.707465219802	3
0	9705	2455.037672080129	2
0	9707	2455.537672080129	1
0	9710	2455.694073029404	2
0	9711	2456.037672080129	1
0	9713	2456.537672080129	0
0	9724	2457.984085710763	1
0	9726	2458.170197841954	2
0	9727	2458.421260678766	1
0	9729	2458.921260678766	0
0	9736	2460.500583390856	1
0	9737	2460.839969782905	0
0	9748	2464.326011252184	1
0	9749	2464.7684018014	0
0	9752	2465.164629956255	1
0	9753	2465.2684018014	0
0	9772	2477.008590925075	1
0	9773	2477.507899135526	0
0	9784	2482.791225370531	1
0	9785	2483.164964039994	0
0	9788	2483.270221912605	1
0	9789	2483.664964039994	0
0	9800	2490.559437287259	1
0	9801	2490.778969649797	0
0	9804	2490.861337635066	1
0	9805	2491.278969649797	0
0	9808	2491.47421861064	1
0	9809	2491.778969649797	0
0	9812	2492.065796574362	1
0	9813	2492.278969649797	0
0	9820	2493.581650743581	1
0	9822	2493.809330729105	2
0	9823	2493.982164901458	1
0	9825	2494.482164901458	0
0	9836	2496.775733153113	1
0	9838	2496.981302961916	2
0	9839	2497.237476247891	1
0	9841	2497.737476247891	0
0	9848	2498.567026765192	1
0	9850	2498.893212420176	2
0	9851	2498.956390009189	1
0	9854	2499.017142753819	2
0	9856	2499.166958347818	3
0	9857	2499.456390009189	2
0	9860	2499.609563221963	3
0	9861	2499.956390009189	2
0	9863	2500.456390009189	1
0	9866	2500.818350110685	2
0	9868	2500.823015811741	3
0	9869	2500.956390009189	2
0	9871	2501.456390009189	1
0	9874	2501.802505892967	2
0	9875	2501.956390009189	1
0	9878	2502.355637114087	2
0	9880	2502.391867376954	3
0	9881	2502.456390009189	2
0	9883	2502.956390009189	1
0	9885	2503.456390009189	0
0	9888	2503.483098293543	1
0	9889	2503.956390009189	0
0	9892	2503.974397608813	1
0	9893	2504.456390009189	0
0	9896	2504.488040844737	1
0	9897	2504.956390009189	0
0	9900	2505.299248939101	1
0	9902	2505.388948949175	2
0	9903	2505.456390009189	1
0	9906	2505.829688796064	2
0	9908	2505.894428790765	3
0	9909	2505.956390009189	2
0	9911	2506.456390009189	1
0	9914	2506.893336560675	2
0	9915	2506.956390009189	1
0	9918	2507.219228092741	2
0	9919	2507.456390009189	1
0	9922	2507.840208554124	2
0	9923	2507.956390009189	1
0	9926	2508.02571038775	2
0	9927	2508.456390009189	1
0	9929	2508.956390009189	0
0	9932	2509.065099076805	1
0	9933	2509.456390009189	0
0	9944	2513.524612182645	1
0	9946	2513.748944635092	2
0	9947	2513.860644877542	1
0	9949	2514.360644877542	0
0	9956	2515.798324035535	1
0	9957	2515.886074661565	0
0	9964	2517.041806765759	1
0	9965	2517.180474109885	0
0	9980	2522.814037563229	1
0	9981	2523.034450908205	0
0	9988	2526.642924069687	1
0	9989	2526.881162360018	0
0	9992	2527.095236760361	1
0	9994	2527.154424958127	2
0	9995	2527.381162360018	1
0	9997	2527.881162360018	0
0	10036	2543.586775034308	1
0	10038	2543.713378414885	2
0	10039	2544.051928987688	1
0	10041	2544.551928987688	0
0	10068	2552.579912729487	1
0	10069	2552.770761178257	0
0	10076	2555.218074427854	1
0	10078	2555.518338507205	2
0	10079	2555.560911005491	1
0	10082	2555.734082115617	2
0	10083	2556.060911005491	1
0	10085	2556.560911005491	0
0	10136	2584.100584597061	1
0	10137	2584.155707298754	0
0	10140	2584.38371312191	1
0	10141	2584.655707298754	0
0	10148	2586.948670690066	1
0	10149	2587.070301982999	0
0	10168	2593.450053516208	1
0	10169	2593.913656426323	0
0	10180	2596.038982171624	1
0	10181	2596.435956703434	0
0	10184	2596.736349411928	1
0	10185	2596.935956703434	0
0	10188	2597.038686408408	1
0	10189	2597.435956703434	0
0	10196	2598.777276255406	1
0	10197	2599.081346911468	0
0	10212	2602.868895668211	1
0	10213	2603.201199119596	0
0	10216	2603.226501276747	1
0	10217	2603.701199119596	0
0	10220	2603.807834306186	1
0	10221	2604.201199119596	0
0	10236	2607.279769210667	1
0	10237	2607.521165940926	0
0	10240	2607.920943106608	1
0	10241	2608.021165940926	0
0	10244	2608.178621930969	1
0	10245	2608.521165940926	0
0	10252	2609.613475174247	1
0	10254	2609.635065254991	2
0	10255	2609.802939526576	1
0	10257	2610.302939526576	0
0	10264	2612.016587854426	1
0	10265	2612.408649779599	0
0	10268	2612.848140482219	1
0	10269	2612.908649779599	0
0	10272	2613.193702218933	1
0	10274	2613.328161076818	2
0	10275	2613.408649779599	1
0	10277	2613.908649779599	0
0	10284	2617.631549050776	1
0	10286	2617.782076371732	2
0	10287	2617.90212152924	1
0	10289	2618.40212152924	0
0	10296	2620.945602649825	1
0	10297	2621.044234686831	0
0	10300	2621.412580286197	1
0	10302	2621.464982685001	2
0	10303	2621.544234686831	1
0	10306	2621.896361193865	2
0	10307	2622.044234686831	1
0	10310	2622.298734405146	2
0	10311	2622.544234686831	1
0	10314	2622.933600791815	2
0	10315	2623.044234686831	1
0	10318	2623.319743217252	2
0	10319	2623.544234686831	1
0	10322	2623.820884005526	2
0	10323	2624.044234686831	1
0	10325	2624.544234686831	0
0	10332	2627.167630578961	1
0	10333	2627.254715703333	0
0	10340	2629.489418947535	1
0	10341	2629.532955333509	0
0	10344	2629.971923132083	1
0	10345	2630.032955333509	0
0	10352	2632.010348357479	1
0	10353	2632.485267387917	0
0	10364	2634.992869938026	1
0	10365	2635.474941503649	0
0	10376	2639.412123494695	1
0	10377	2639.746818948797	0
0	10392	2649.33108695816	1
0	10394	2649.606439985551	2
0	10395	2649.72546703516	1
0	10397	2650.22546703516	0
0	10408	2653.139461747166	1
0	10409	2653.290944635621	0
0	10420	2657.608901126216	1
0	10421	2657.972981626456	0
0	10436	2661.978460724921	1
0	10437	2662.200687730807	0
0	10452	2666.731862155516	1
0	10454	2666.834792469809	2
0	10455	2666.940877034658	1
0	10457	2667.440877034658	0
0	10460	2667.881851529959	1
0	10461	2667.940877034658	0
0	10476	2672.712126325787	1
0	10477	2673.16857568448	0
0	10488	2674.808516654183	1
0	10489	2675.253285569614	0
0	10504	2677.371843236556	1
0	10505	2677.688598271809	0
0	10508	2677.691604446933	1
0	10509	2678.188598271809	0
0	10516	2679.666555159314	1
0	10517	2679.917036471641	0
0	10524	2681.039034168726	1
0	10525	2681.372291614262	0
0	10564	2699.191323847842	1
0	10566	2699.229160309636	2
0	10567	2699.243306370695	1
0	10570	2699.308041292661	2
0	10572	2699.322395330628	3
0	10573	2699.743306370695	2
0	10575	2700.243306370695	1
0	10577	2700.743306370695	0
0	10584	2703.87816596572	1
0	10585	2703.959457742261	0
0	10596	2707.881534175125	1
0	10597	2708.151492983802	0
0	10616	2714.80935313014	1
0	10617	2715.242014460287	0
0	10620	2715.6137579046	1
0	10622	2715.65935284717	2
0	10623	2715.742014460287	1
0	10626	2715.948636352181	2
0	10627	2716.242014460287	1
0	10629	2716.742014460287	0
0	10636	2718.785388149398	1
0	10637	2718.893748548251	0
0	10640	2719.149298778563	1
0	10641	2719.393748548251	0
0	10652	2721.694936625642	1
0	10653	2722.017661438079	0
0	10660	2725.822448075746	1
0	10661	2726.237346395675	0
0	10664	2726.334021532919	1
0	10665	2726.737346395675	0
0	10668	2727.053892058695	1
0	10669	2727.237346395675	0
0	10676	2728.400289010302	1
0	10677	2728.650121380962	0
0	10680	2728.912581657376	1
0	10681	2729.150121380962	0
0	10684	2729.176959394547	1
0	10685	2729.650121380962	0
0	10704	2733.096762589976	1
0	10705	2733.325579480434	0
0	10712	2736.043775150493	1
0	10713	2736.227273624986	0
0	10720	2737.042330641727	1
0	10721	2737.243844796218	0
0	10724	2737.260952117345	1
0	10725	2737.743844796218	0
0	10728	2738.020923801896	1
0	10730	2738.048375399568	2
0	10731	2738.243844796218	1
0	10733	2738.743844796218	0
0	10740	2739.350968518789	1
0	10741	2739.763035173484	0
0	10768	2747.533775345368	1
0	10769	2747.848738770583	0
0	10772	2748.170933136792	1
0	10773	2748.348738770583	0
0	10776	2748.639438089603	1
0	10777	2748.848738770583	0
0	10788	2750.24774311851	1
0	10789	2750.747025900615	0
0	10796	2751.422208328529	1
0	10798	2751.773031818597	2
0	10799	2751.907317073016	1
0	10801	2752.407317073016	0
0	10808	2753.757621077693	1
0	10809	2753.89623229505	0
0	10816	2755.148652030147	1
0	10817	2755.208767591323	0
0	10828	2758.69595207831	1
0	10829	2758.720488176067	0
0	10840	2760.554620192647	1
0	10841	2760.976358844765	0
0	10844	2761.187933368844	1
0	10846	2761.269410375208	2
0	10847	2761.476358844765	1
0	10849	2761.976358844765	0
0	10856	2763.025625477594	1
0	10857	2763.061545153007	0
0	10860	2763.128388981101	1
0	10861	2763.561545153007	0
0	10868	2764.70833917864	1
0	10869	2765.083352213576	0
0	10884	2768.895415822446	1
0	10885	2769.28406796446	0
0	10896	2774.030050030156	1
0	10897	2774.191561969258	0
0	10936	2788.069137801499	1
0	10937	2788.243421594159	0
0	10984	2803.493255389229	1
0	10985	2803.955873909982	0
0	10992	2805.013468633025	1
0	10993	2805.35400374052	0
0	11008	2811.148866497338	1
0	11010	2811.162598092319	2
0	11011	2811.561355330753	1
0	11014	2811.888524081926	2
0	11015	2812.061355330753	1
0	11018	2812.543261311646	2
0	11019	2812.561355330753	1
0	11022	2812.791544194985	2
0	11023	2813.061355330753	1
0	11025	2813.561355330753	0
0	11032	2815.602904121783	1
0	11033	2815.782291464414	0
0	11036	2815.789155373674	1
0	11037	2816.282291464414	0
0	11044	2817.03929424006	1
0	11046	2817.06995220244	2
0	11047	2817.499282017817	1
0	11050	2817.632326619392	2
0	11051	2817.999282017817	1
0	11053	2818.499282017817	0
0	11096	2827.1567086512	1
0	11097	2827.233807535378	0
0	11104	2828.044930199034	1
0	11105	2828.438338378841	0
0	11112	2829.528464994377	1
0	11113	2829.645183589015	0
0	11120	2830.451519708598	1
0	11122	2830.515664501107	2
0	11123	2830.767426033915	1
0	11125	2831.267426033915	0
0	11128	2831.327895215866	1
0	11129	2831.767426033915	0
0	11136	2833.378041867244	1
0	11137	2833.495274257572	0
0	11140	2833.715549597393	1
0	11141	2833.995274257572	0
0	11172	2847.354959881053	1
0	11173	2847.480250450666	0
0	11180	2851.749946012457	1
0	11181	2852.080226782569	0
0	11196	2856.846414968056	1
0	11197	2856.935312409623	0
0	11200	2857.222696021506	1
0	11201	2857.435312409623	0
0	11204	2857.785228140805	1
0	11205	2857.935312409623	0
0	11208	2858.240207642293	1
0	11209	2858.435312409623	0
0	11216	2860.357641216471	1
0	11218	2860.380225905145	2
0	11219	2860.63291295113	1
0	11222	2861.047994122804	2
0	11223	2861.13291295113	1
0	11225	2861.63291295113	0
0	11248	2873.116770018464	1
0	11250	2873.272464113875	2
0	11252	2873.297977112592	3
0	11253	2873.49081053319	2
0	11256	2873.802546483962	3
0	11257	2873.99081053319	2
0	11259	2874.49081053319	1
0	11261	2874.99081053319	0
0	11268	2876.252913862494	1
0	11269	2876.591600245328	0
0	11272	2877.023309606955	1
0	11273	2877.091600245328	0
0	11276	2877.154266963848	1
0	11278	2877.377647897238	2
0	11279	2877.591600245328	1
0	11281	2878.091600245328	0
0	11292	2882.180839518881	1
0	11293	2882.319265069212	0
0	11300	2883.524464521718	1
0	11302	2883.654670707366	2
0	11303	2883.714291163619	1
0	11305	2884.214291163619	0
0	11312	2885.429670385785	1
0	11313	2885.629105373678	0
0	11320	2886.243083208403	1
0	11321	2886.681124864434	0
0	11328	2888.542122946053	1
0	11329	2888.806577216121	0
0	11336	2897.514805044958	1
0	11338	2897.598496303908	2
0	11340	2897.813220764642	3
0	11341	2897.872889251284	2
0	11344	2897.967629638359	3
0	11345	2898.372889251284	2
0	11347	2898.872889251284	1
0	11350	2899.124296379798	2
0	11351	2899.372889251284	1
0	11353	2899.872889251284	0
0	11360	2902.041576827857	1
0	11362	2902.278948067093	2
0	11364	2902.386371393154	3
0	11366	2902.432341812214	4
0	11367	2902.490809977108	3
0	11370	2902.576412706845	4
0	11371	2902.990809977108	3
0	11373	2903.490809977108	2
0	11375	2903.990809977108	1
0	11377	2904.490809977108	0
0	11380	2904.545115110244	1
0	11382	2904.925703906628	2
0	11383	2904.990809977108	1
0	11386	2905.002124954284	2
0	11388	2905.357016211153	3
0	11389	2905.490809977108	2
0	11391	2905.990809977108	1
0	11393	2906.490809977108	0
0	11400	2908.917473323253	1
0	11401	2909.123016646839	0
0	11420	2918.545823698492	1
0	11421	2918.978488222191	0
0	11424	2919.309345965401	1
0	11425	2919.478488222191	0
0	11444	2924.951759943176	1
0	11446	2925.064573101268	2
0	11447	2925.287609503412	1
0	11449	2925.787609503412	0
0	11452	2926.051664783148	1
0	11453	2926.287609503412	0
0	11456	2926.577221419184	1
0	11457	2926.787609503412	0
0	11464	2927.999282648752	1
0	11465	2928.148124220158	0
0	11500	2940.016882171052	1
0	11501	2940.233985533082	0
0	11508	2942.483300056223	1
0	11509	2942.677662381497	0
0	11524	2947.494982222706	1
0	11525	2947.527457286496	0
0	11528	2947.6361855741	1
0	11529	2948.027457286496	0
0	11540	2950.034121450145	1
0	11541	2950.118843803347	0
0	11548	2951.498939003155	1
0	11549	2951.752874746224	0
0	11552	2951.834251646068	1
0	11554	2952.203605353885	2
0	11555	2952.252874746224	1
0	11558	2952.313406910491	2
0	11559	2952.752874746224	1
0	11562	2953.020583487405	2
0	11563	2953.252874746224	1
0	11565	2953.752874746224	0
0	11572	2955.656194500222	1
0	11573	2955.905447130652	0
0	11588	2959.233250543503	1
0	11589	2959.655373927545	0
0	11612	2965.316993101527	1
0	11613	2965.437676734458	0
0	11620	2967.492694975309	1
0	11621	2967.947208117096	0
0	11632	2971.009547425798	1
0	11634	2971.075500667033	2
0	11635	2971.192709625761	1
0	11637	2971.692709625761	0
0	11640	2972.010834982328	1
0	11641	2972.192709625761	0
0	11660	2978.706014776297	1
0	11661	2978.898186966644	0
0	11668	2981.588104808634	1
0	11670	2981.952219794196	2
0	11671	2981.981216411747	1
0	11674	2982.290109220101	2
0	11675	2982.481216411747	1
0	11677	2982.981216411747	0
0	11684	2986.609471073818	1
0	11685	2986.890510905426	0
0	11692	2988.942542635177	1
0	11693	2989.433598759043	0
0	11696	2989.556366533937	1
0	11697	2989.933598759043	0
0	11716	2996.858597843347	1
0	11717	2996.997802730716	0
0	11728	2999.412043834678	1
0	11729	2999.526625614983	0
0	11736	3003.151089748697	1
0	11737	3003.432372650507	0
0	11760	3009.989550251795	1
0	11762	3010.451491576657	2
0	11763	3010.47316393421	1
0	11765	3010.97316393421	0
0	11780	3013.115653946879	1
0	11781	3013.444531743907	0
0	11788	3015.437792784527	1
0	11790	3015.825623689949	2
0	11791	3015.899297149638	1
0	11794	3016.324442578971	2
0	11795	3016.399297149638	1
0	11797	3016.899297149638	0
0	11800	3016.967248063755	1
0	11802	3017.13463748216	2
0	11803	3017.399297149638	1
0	11806	3017.857763795808	2
0	11807	3017.899297149638	1
0	11810	3018.023514231569	2
0	11812	3018.174848319148	3
0	11813	3018.399297149638	2
0	11816	3018.828448276941	3
0	11817	3018.899297149638	2
0	11819	3019.399297149638	1
0	11821	3019.899297149638	0
0	11824	3020.076346160529	1
0	11826	3020.271066846332	2
0	11827	3020.399297149638	1
0	11829	3020.899297149638	0
0	11836	3022.268822103051	1
0	11838	3022.328475805191	2
0	11839	3022.545829683841	1
0	11841	3023.045829683841	0
0	11844	3023.184468895685	1
0	11846	3023.528917201708	2
0	11847	3023.545829683841	1
0	11849	3024.045829683841	0
0	11852	3024.139678876875	1
0	11854	3024.178466148178	2
0	11855	3024.545829683841	1
0	11857	3025.045829683841	0
0	11860	3025.444736572643	1
0	11861	3025.545829683841	0
0	11876	3030.669883305428	1
0	11877	3030.802715554534	0
0	11904	3042.31397758693	1
0	11905	3042.344911137454	0
0	11908	3042.598687195227	1
0	11909	3042.844911137454	0
0	11912	3043.03536286978	1
0	11913	3043.344911137454	0
0	11920	3044.634716896293	1
0	11921	3044.659471043426	0
0	11936	3053.128008240139	1
0	11937	3053.182575218417	0
0	11940	3053.419118916628	1
0	11941	3053.682575218417	0
0	11956	3061.575937230644	1
0	11957	3061.587299529427	0
0	11960	3061.606836239367	1
0	11961	3062.087299529427	0
0	11968	3063.247034532103	1
0	11970	3063.381374589845	2
0	11972	3063.500439681274	3
0	11973	3063.531830267214	2
0	11975	3064.031830267214	1
0	11977	3064.531830267214	0
0	11984	3067.15920025542	1
0	11986	3067.321129402071	2
0	11988	3067.579564682114	3
0	11989	3067.615912674246	2
0	11991	3068.115912674246	1
0	11993	3068.615912674246	0
[...]
1	37764	9493.634226602382	0.5
1	37768	9495.791882692132	0.5
1	37772	9497.124077949103	0.5
1	37776	9499.202156613496	0.5
1	37780	9504.106477333755	0.5
1	37784	9504.628775501237	0.5
1	37788	9505.234556848288	0.5
1	37792	9505.746653288326	0.5
1	37796	9507.122892674983	0.5
1	37804	9507.709831450518	0.5
1	37808	9508.209831450518	0.824207153317
1	37810	9508.709831450518	1.285638835267
1	37812	9509.209831450518	1.237446246571
1	37816	9510.477152442544	0.5
1	37820	9511.508892950884	0.5
1	37824	9512.731089732822	0.5
1	37834	9513.329494279089	0.5
1	37838	9513.829494279089	0.612074272942
1	37842	9514.329494279089	1.081901430117
1	37844	9514.829494279089	1.557564904335
1	37848	9515.329494279089	1.676534894183
1	37852	9515.829494279089	1.976112082572
1	37858	9516.329494279089	1.348891178297
1	37862	9516.829494279089	1.459245639122
1	37864	9517.329494279089	1.456398561229
1	37866	9517.829494279089	1.605420391773
1	37868	9518.329494279089	1.510479299387
1	37872	9519.493583337417	0.5
1	37876	9521.432770376746	0.5
1	37882	9523.017579327335	0.5
1	37886	9523.517579327335	0.686123385574
1	37890	9524.017579327335	0.971851431753
1	37892	9524.517579327335	0.514916792413
1	37896	9526.860297826088	0.5
1	37900	9528.729611735063	0.5
1	37904	9529.524001305658	0.5
1	37910	9531.169847162196	0.5
1	37918	9531.669847162196	0.638646461078
1	37920	9532.169847162196	0.865887586973
1	37922	9532.669847162196	1.226456666632
1	37924	9533.169847162196	1.674015591968
1	37932	9534.838125903345	0.5
1	37940	9535.338125903345	0.675892098951
1	37942	9535.838125903345	1.107799371661
1	37944	9536.338125903345	1.413724931946
1	37946	9536.838125903345	1.610206285022
1	37950	9537.338125903345	2.082104353085
1	37956	9537.838125903345	0.756886114762
1	37958	9538.338125903345	0.89396075332
1	37962	9538.838125903345	1.066838665732
1	37966	9539.338125903345	0.831177662755
1	37968	9539.838125903345	0.675616213168
1	37972	9540.713243591623	0.5
1	37978	9542.247048271708	0.5
1	37980	9542.747048271708	0.525353241271
1	37986	9543.61573077632	0.5
1	37988	9544.11573077632	0.771488420214
1	37992	9545.093351825692	0.5
1	37998	9545.935709329251	0.5
1	38000	9546.435709329251	0.625821356096
1	38006	9547.705692647707	0.5
1	38008	9548.205692647707	0.778748652029
1	38012	9549.114229111925	0.5
1	38016	9550.039237361534	0.5
1	38024	9551.984040014139	0.5
1	38026	9552.484040014139	0.817057747449
1	38030	9552.984040014139	1.010713247501
1	38034	9553.484040014139	0.736402377347
1	38036	9553.984040014139	0.537217343915
1	38040	9555.793506049346	0.5
1	38044	9556.463791365218	0.5
1	38050	9557.382108748832	0.5
1	38052	9557.882108748832	0.612007479478
1	38056	9558.787103556533	0.5
1	38064	9559.946807483653	0.5
1	38066	9560.446807483653	0.677131531691
1	38068	9560.946807483653	1.03299068294
1	38072	9565.031519039958	0.5
1	38080	9566.667039829657	0.5
1	38084	9567.167039829657	0.651715530101
1	38088	9567.667039829657	1.114409044316
1	38092	9568.167039829657	1.172123232253
1	38094	9568.667039829657	1.180806325645
1	38098	9569.167039829657	1.193297235859
1	38100	9569.667039829657	0.758536120964
1	38104	9572.403178483714	0.5
1	38108	9572.955458393597	0.5
1	38112	9573.898823718723	0.5
1	38120	9574.965042815907	0.5
1	38124	9575.465042815907	0.937601924775
1	38126	9575.965042815907	1.398028512371
1	38128	9576.465042815907	1.4221747943
1	38138	9577.56148177163	0.5
1	38142	9578.06148177163	0.841363187866
1	38144	9578.56148177163	1.260524937055
1	38150	9579.06148177163	1.611272376542
1	38156	9579.56148177163	1.771951240574
1	38158	9580.06148177163	1.368601504186
1	38164	9580.56148177163	1.521354948747
1	38166	9581.06148177163	1.58746487378
1	38170	9581.56148177163	2.075580904472
1	38172	9582.06148177163	1.797811234646
1	38174	9582.56148177163	2.199068907507
1	38176	9583.06148177163	1.729750511841
1	38180	9583.7414903088	0.5
1	38184	9584.410569230034	0.5
1	38190	9585.905852230362	0.5
1	38192	9586.405852230362	0.75742961212
1	38198	9587.487808526706	0.5
1	38200	9587.987808526706	0.90299828046
1	38208	9588.753725499996	0.5
1	38210	9589.253725499996	0.642789179106
1	38214	9589.753725499996	1.065335528037
1	38222	9590.253725499996	0.79202784493
1	38228	9590.753725499996	0.937269009769
1	38230	9591.253725499996	1.109663042501
1	38232	9591.753725499996	1.60306806772
1	38234	9592.253725499996	1.605852540903
1	38236	9592.753725499996	2.043422709553
1	38250	9593.571628140908	0.5
1	38252	9594.071628140908	0.961376004273
1	38254	9594.571628140908	1.43468837131
1	38256	9595.071628140908	1.712876419944
1	38264	9595.571628140908	2.126530107459
1	38268	9596.071628140908	2.56860058307
1	38270	9596.571628140908	1.353455775867
1	38272	9597.071628140908	1.83642783141
1	38276	9597.571628140908	2.130506441934
1	38278	9598.071628140908	2.349581842724
1	38280	9598.571628140908	1.064514638425
1	38284	9599.610837366942	0.5
1	38292	9600.591270804869	0.5
1	38294	9601.091270804869	0.942041376429
1	38296	9601.591270804869	1.326163072906
1	38302	9604.935204424542	0.5
1	38304	9605.435204424542	0.593111713178
1	38308	9606.413819380865	0.5
1	38312	9609.673240540931	0.5
1	38318	9611.689300842932	0.5
1	38320	9612.189300842932	0.805649357172
1	38324	9612.964524926678	0.5
1	38328	9613.497998314441	0.5
1	38334	9614.998015797581	0.5
1	38338	9615.498015797581	0.63282778134
1	38342	9615.998015797581	0.775039566799
1	38346	9616.498015797581	0.562066929274
1	38350	9616.998015797581	0.764570583916
1	38352	9617.498015797581	0.694722657128
1	38356	9618.395202865681	0.5
1	38360	9621.08137976935	0.5
1	38364	9621.909555120968	0.5
1	38368	9623.658926588258	0.5
1	38372	9624.363464919773	0.5
1	38378	9625.231867543249	0.5
1	38384	9625.731867543249	0.804890734515
1	38386	9626.231867543249	0.898657867705
1	38388	9626.731867543249	1.136450511679
1	38392	9627.486240532914	0.5
1	38396	9628.284137549878	0.5
1	38400	9629.174732439864	0.5
1	38406	9629.702226282716	0.5
1	38408	9630.202226282716	0.822691210619
1	38414	9633.16327728249	0.5
1	38416	9633.66327728249	0.625972424606
1	38420	9634.342104204457	0.5
1	38424	9635.182182469752	0.5
1	38428	9635.747308817563	0.5
1	38432	9636.951154060408	0.5
1	38440	9639.95893569095	0.5
1	38442	9640.45893569095	0.613595646872
1	38444	9640.95893569095	1.017509936188
1	38450	9642.851863144576	0.5
1	38454	9643.351863144576	0.682845182496
1	38460	9643.851863144576	0.658259031489
1	38462	9644.351863144576	0.733007809986
1	38464	9644.851863144576	1.071462485263
1	38470	9646.201148395625	0.5
1	38472	9646.701148395625	0.761303272677
1	38478	9647.89404147505	0.5
1	38484	9648.39404147505	0.778369410047
1	38486	9648.89404147505	0.914937144801
1	38488	9649.39404147505	1.148619493909
1	38494	9650.805557925709	0.5
1	38498	9651.305557925709	0.516023159403
1	38502	9651.805557925709	0.951424197081
1	38506	9652.305557925709	0.826040138542
1	38508	9652.805557925709	0.645874454408
1	38512	9653.441171856485	0.5
1	38516	9654.504467876478	0.5
1	38522	9657.285516201187	0.5
1	38524	9657.785516201187	0.625751085455
1	38532	9658.503641100492	0.5
1	38536	9659.003641100492	0.928320230873
1	38540	9659.503641100492	1.23030049388
1	38544	9660.003641100492	1.433025481321
1	38550	9660.503641100492	1.325403759289
1	38552	9661.003641100492	1.164197449636
1	38554	9661.503641100492	1.479301793382
1	38556	9662.003641100492	1.596420214463
1	38560	9663.327366991596	0.5
1	38568	9663.864659559767	0.5
1	38570	9664.364659559767	0.815625000109
1	38576	9664.864659559767	1.217874765161
1	38578	9665.364659559767	0.774838186265
1	38582	9665.864659559767	1.260461797689
1	38584	9666.364659559767	0.897799272324
1	38588	9668.067424543169	0.5
1	38598	9669.043333062959	0.5
1	38602	9669.543333062959	0.91866873779
1	38604	9670.043333062959	1.358266311837
1	38608	9670.543333062959	1.511789785656
1	38612	9671.043333062959	1.670253490005
1	38614	9671.543333062959	1.079474312154
1	38616	9672.043333062959	1.143027833763
1	38620	9673.261443259456	0.5
1	38626	9675.827486696639	0.5
1	38628	9676.327486696639	0.612478828372
1	38632	9677.153015292653	0.5
1	38636	9678.208764944795	0.5
1	38640	9679.858096616852	0.5
1	38644	9680.497004307186	0.5
1	38650	9681.182230319201	0.5
1	38654	9681.682230319201	0.947639788437
1	38658	9682.182230319201	0.941294893701
1	38664	9682.682230319201	0.916432885424
1	38666	9683.182230319201	0.755561024874
1	38668	9683.682230319201	1.225258454269
1	38672	9684.504204455948	0.5
1	38678	9687.833740878956	0.5
1	38680	9688.333740878956	0.904582159145
1	38684	9689.365415887937	0.5
1	38690	9692.437559349357	0.5
1	38692	9692.937559349357	0.585556211752
1	38700	9693.777225545111	0.5
1	38704	9694.277225545111	0.732459799584
1	38710	9694.777225545111	1.026391816224
1	38714	9695.277225545111	1.015020753357
1	38720	9695.777225545111	1.470270983614
1	38722	9696.277225545111	1.590233159807
1	38724	9696.777225545111	1.953167029237
1	38726	9697.277225545111	1.989869797737
1	38728	9697.777225545111	2.376584851113
1	38732	9698.410427425107	0.5
1	38736	9698.925670581532	0.5
1	38740	9699.44406669795	0.5
1	38744	9700.621691567498	0.5
1	38752	9701.974162405447	0.5
1	38756	9702.474162405447	0.712074521918
1	38758	9702.974162405447	1.041507977077
1	38762	9703.474162405447	1.055294808737
1	38764	9703.974162405447	0.792409315519
1	38768	9704.512315455095	0.5
1	38772	9705.193008436749	0.5
1	38776	9706.872134118002	0.5
1	38780	9707.766741510119	0.5
1	38784	9708.70240674494	0.5
1	38790	9709.841489503803	0.5
1	38792	9710.341489503803	0.795177211754
1	38798	9712.019733512139	0.5
1	38802	9712.519733512139	0.720043409013
1	38808	9713.019733512139	0.958721180342
1	38810	9713.519733512139	0.994445860034
1	38816	9714.019733512139	1.013932620964
1	38818	9714.519733512139	0.846351419621
1	38820	9715.019733512139	1.287468569361
1	38824	9716.388206769837	0.5
1	38830	9717.366855149737	0.5
1	38832	9717.866855149737	0.716755081633
1	38836	9720.379781232418	0.5
1	38840	9723.006462658277	0.5
1	38844	9723.51097012392	0.5
1	38848	9724.995798844514	0.5
1	38854	9728.562498991897	0.5
1	38856	9729.062498991897	0.615052961902
1	38860	9729.858438928997	0.5
1	38866	9733.263663345996	0.5
1	38870	9733.763663345996	0.762698307154
1	38874	9734.263663345996	0.802588618965
1	38876	9734.763663345996	0.548567615657
1	38880	9735.852760268011	0.5
1	38884	9736.874538025323	0.5
1	38888	9739.632100469707	0.5
1	38892	9740.729531942974	0.5
1	38896	9742.286440946433	0.5
1	38900	9743.302667514647	0.5
1	38908	9745.478679686415	0.5
1	38912	9745.978679686415	0.789755430523
1	38914	9746.478679686415	1.113412890142
1	38920	9746.978679686415	1.379826777103
1	38924	9747.478679686415	0.848346558039
1	38926	9747.978679686415	1.071982783536
1	38930	9748.478679686415	1.48870149393
1	38932	9748.978679686415	0.668217662559
1	38936	9752.720184237083	0.5
1	38940	9753.412041298814	0.5
1	38944	9754.610292828793	0.5
1	38950	9755.722767497558	0.5
1	38952	9756.222767497558	0.889932408776
1	38956	9757.439095081048	0.5
1	38960	9759.014131002428	0.5
1	38964	9759.844403509358	0.5
1	38968	9760.464872637437	0.5
1	38974	9761.101906136981	0.5
1	38978	9761.601906136981	0.917142334471
1	38980	9762.101906136981	0.902116080899
1	38984	9763.331313543125	0.5
1	38992	9764.099750969776	0.5
1	38994	9764.599750969776	0.964108895678
1	38996	9765.099750969776	1.302085748262
1	39000	9765.884026904668	0.5
1	39004	9767.427890139763	0.5
1	39008	9768.281725016684	0.5
1	39014	9770.720808642979	0.5
1	39016	9771.220808642979	0.997290287923
1	39020	9772.396775256895	0.5
1	39024	9772.986166563619	0.5
1	39028	9774.7115517595	0.5
1	39032	9775.654658443513	0.5
1	39040	9777.42310040127	0.5
1	39044	9777.92310040127	0.770435464582
1	39046	9778.42310040127	1.077276452648
1	39048	9778.92310040127	1.307926746214
1	39054	9783.59088061487	0.5
1	39056	9784.09088061487	0.933086869959
1	39060	9784.728360387021	0.5
1	39064	9785.83621711629	0.5
1	39070	9786.382543960387	0.5
1	39072	9786.882543960387	0.783690259588
1	39076	9788.788323105	0.5
1	39080	9790.762246448936	0.5
1	39084	9791.635361016222	0.5
1	39088	9793.056337332235	0.5
1	39094	9798.11163169858	0.5
1	39096	9798.61163169858	0.902430421128
1	39100	9799.603825015249	0.5
1	39106	9800.419530006127	0.5
1	39110	9800.919530006127	0.541908007337
1	39112	9801.419530006127	0.510013621938
1	39116	9802.766493614959	0.5
1	39120	9804.274845676086	0.5
1	39124	9805.584586381689	0.5
1	39132	9806.66986064444	0.5
1	39134	9807.16986064444	0.624592436548
1	39136	9807.66986064444	1.043214583801
1	39140	9809.282322984969	0.5
1	39148	9813.280775021298	0.5
1	39152	9813.780775021298	0.848287275279
1	39156	9814.280775021298	1.051324714667
1	39158	9814.780775021298	1.096763611711
1	39162	9815.280775021298	1.301641193969
1	39166	9815.780775021298	0.790286227199
1	39170	9816.280775021298	0.92674427215
1	39172	9816.780775021298	0.774471986665
1	39176	9820.238332354891	0.5
1	39180	9821.372020341679	0.5
1	39184	9823.000547878537	0.5
1	39192	9828.935134028924	0.5
1	39196	9829.435134028924	0.910018894525
1	39198	9829.935134028924	1.328812486122
1	39200	9830.435134028924	1.287556594553
1	39204	9831.070406555936	0.5
1	39208	9833.003399864171	0.5
1	39214	9834.703991413864	0.5
1	39218	9835.203991413864	0.570411592194
1	39224	9835.703991413864	0.738845283096
1	39226	9836.203991413864	0.894361404448
1	39230	9836.703991413864	1.09978085917
1	39232	9837.203991413864	0.579792055832
1	39238	9837.706445119497	0.5
1	39242	9838.206445119497	0.54165063881
1	39246	9838.706445119497	0.54101169164
1	39250	9839.206445119497	0.8647302897
1	39252	9839.706445119497	0.655821414361
1	39258	9840.210860403764	0.5
1	39260	9840.710860403764	0.76227033472
1	39264	9842.118288063959	0.5
1	39268	9842.799112428653	0.5
1	39272	9844.660376160011	0.5
1	39276	9846.335699764645	0.5
1	39280	9847.291913334604	0.5
1	39284	9849.436498488123	0.5
1	39288	9856.47246561836	0.5
1	39292	9857.571364721235	0.5
1	39298	9861.749362342022	0.5
1	39302	9862.249362342022	0.660139380948
1	39304	9862.749362342022	0.887418331809
1	39308	9864.427444106451	0.5
1	39312	9865.901132172724	0.5
1	39320	9866.447978681539	0.5
1	39324	9866.947978681539	0.796787217491
1	39330	9867.447978681539	1.033072690903
1	39332	9867.947978681539	1.003036090708
1	39334	9868.447978681539	1.358475743483
1	39336	9868.947978681539	1.848462262386
1	39344	9870.861009057535	0.5
1	39348	9871.361009057535	0.775057535096
1	39352	9871.861009057535	1.182965098318
1	39354	9872.361009057535	1.429854357122
1	39356	9872.861009057535	1.175341299325
1	39364	9876.588946479025	0.5
1	39366	9877.088946479025	0.774131144117
1	39368	9877.588946479025	1.231593850255
1	39372	9878.884432446766	0.5
1	39378	9881.800461231493	0.5
1	39380	9882.300461231493	0.783674786002
1	39384	9883.838130776898	0.5
1	39394	9885.171755886333	0.5
1	39396	9885.671755886333	0.977264113223
1	39398	9886.171755886333	1.296801658254
1	39400	9886.671755886333	1.649770808153
1	39404	9888.304418018917	0.5
1	39408	9889.296052836546	0.5
1	39414	9890.384690033465	0.5
1	39418	9890.884690033465	0.567987820205
1	39422	9891.384690033465	0.53163776348
1	39424	9891.884690033465	0.614060255311
1	39428	9895.053577730977	0.5
1	39432	9896.245856671668	0.5
1	39436	9896.988300953733	0.5
1	39442	9902.238890574541	0.5
1	39446	9902.738890574541	0.515371982655
1	39450	9903.238890574541	0.610838087392
1	39452	9903.738890574541	0.933533324551
1	39456	9905.869877071997	0.5
1	39460	9907.146740732984	0.5
1	39464	9908.4503192651	0.5
1	39468	9909.357484122971	0.5
1	39474	9911.234731503382	0.5
1	39478	9911.734731503382	0.747822969837
1	39482	9912.234731503382	0.536841504965
1	39484	9912.734731503382	0.749210319615
1	39490	9913.247568148867	0.5
1	39492	9913.747568148867	0.75104861517
1	39496	9914.287202054716	0.5
1	39500	9914.972067359	0.5
1	39508	9915.804796474625	0.5
1	39514	9916.304796474625	0.951555998185
1	39516	9916.804796474625	1.295555646463
1	39518	9917.304796474625	1.45412465309
1	39524	9917.804796474625	1.722135337223
1	39526	9918.304796474625	0.887962938904
1	39532	9918.804796474625	1.221052407565
1	39534	9919.304796474625	0.750226531051
1	39536	9919.804796474625	1.038305709715
1	39540	9920.973520264805	0.5
1	39544	9922.067047989648	0.5
1	39552	9923.432853517143	0.5
1	39554	9923.932853517143	0.768698088928
1	39556	9924.432853517143	1.247191129087
1	39560	9925.792635538176	0.5
1	39566	9926.635604096554	0.5
1	39570	9927.135604096554	0.872766102114
1	39572	9927.635604096554	0.795770891471
1	39580	9931.826351479553	0.5
1	39582	9932.326351479553	0.551679503591
1	39584	9932.826351479553	1.050246320885
1	39588	9937.153291522491	0.5
1	39592	9939.010386907214	0.5
1	39600	9940.080304956603	0.5
1	39602	9940.580304956603	0.99800738997
1	39604	9941.080304956603	1.20889753893
1	39608	9941.910705607419	0.5
1	39612	9942.671844854527	0.5
1	39618	9943.972529780053	0.5
1	39620	9944.472529780053	0.899923355858
1	39624	9945.258545480666	0.5
1	39630	9946.626109467037	0.5
1	39634	9947.126109467037	0.567857205169
1	39636	9947.626109467037	0.640680493645
1	39642	9948.471841521573	0.5
1	39644	9948.971841521573	0.815014852198
1	39650	9949.571632180496	0.5
1	39652	9950.071632180496	0.822759756886
1	39658	9951.0941690402	0.5
1	39660	9951.5941690402	0.984653987807
1	39664	9952.347425167678	0.5
1	39670	9953.851963808432	0.5
1	39672	9954.351963808432	0.71467260932
1	39676	9955.441820804787	0.5
1	39680	9956.678283555463	0.5
1	39686	9957.341922215813	0.5
1	39690	9957.841922215813	0.625352827076
1	39694	9958.341922215813	0.760120290753
1	39698	9958.841922215813	0.773172882755
1	39702	9959.341922215813	0.776231014425
1	39704	9959.841922215813	0.93687152044
1	39708	9961.559978928591	0.5
1	39714	9962.90398565086	0.5
1	39716	9963.40398565086	0.870688529817
1	39724	9964.833121906531	0.5
1	39728	9965.333121906531	0.96998941098
1	39732	9965.833121906531	1.184105963465
1	39734	9966.333121906531	1.441111114283
1	39738	9966.833121906531	1.219384148259
1	39740	9967.333121906531	0.983985545698
1	39746	9968.072024789725	0.5
1	39748	9968.572024789725	0.992287415297
1	39754	9969.820054737299	0.5
1	39756	9970.320054737299	0.889889626633
1	39760	9971.229386557766	0.5
1	39766	9972.426264545648	0.5
1	39770	9972.926264545648	0.895546554478
1	39772	9973.426264545648	0.801225452082
1	39776	9974.277334442985	0.5
1	39780	9977.246209687041	0.5
1	39784	9979.604308807211	0.5
1	39788	9982.020808303356	0.5
1	39794	9982.60417043665	0.5
1	39796	9983.10417043665	0.6764034648
1	39802	9984.284921015146	0.5
1	39804	9984.784921015146	0.525641419489
1	39808	9988.027485945429	0.5
1	39812	9990.530618431636	0.5
1	39816	9991.714675213314	0.5
1	39822	9992.580409712986	0.5
1	39826	9993.080409712986	0.65789449224
1	39830	9993.580409712986	0.696300351666
1	39832	9994.080409712986	0.594683790797
1	39836	9995.597199420157	0.5
1	39840	9996.229640654738	0.5
1	39844	9998.813317634407	0.5
1	39848	10000.704091149916	0.5
1	39852	10001.823395236942	0.5
1	39858	10005.273929144892	0.5
1	39860	10005.773929144892	0.737461071918
1	39864	10006.435901737583	0.5
1	39870	10008.146600349747	0.5
1	39874	10008.646600349747	0.919958213152
1	39876	10009.146600349747	0.874323459719
1	39880	10011.759053973071	0.5
1	39884	10012.956536466337	0.5
1	39888	10018.07631180051	0.5
1	39892	10018.742532016036	0.5
1	39896	10019.246013402431	0.5
1	39900	10022.073944015002	0.5
1	39906	10023.821757325309	0.5
1	39912	10024.321757325309	0.92917483377
1	39914	10024.821757325309	0.860228082586
1	39918	10025.321757325309	1.190866143027
1	39924	10025.821757325309	0.501904208
1	39928	10026.321757325309	0.785527378288
1	39930	10026.821757325309	1.242753605341
1	39932	10027.321757325309	1.493008722879
1	39942	10028.54228975808	0.5
1	39946	10029.04228975808	0.731561413741
1	39948	10029.54228975808	1.185734925734
1	39952	10030.04228975808	1.519857177626
1	39954	10030.54228975808	1.77130466549
1	39960	10031.04228975808	1.090665670177
1	39962	10031.54228975808	0.751915711181
1	39964	10032.04228975808	1.005815985802
1	39970	10033.679026811922	0.5
1	39978	10034.179026811922	0.731527588774
1	39982	10034.679026811922	0.913396014439
1	39984	10035.179026811922	1.193511817834
1	39986	10035.679026811922	1.599947692987
1	39988	10036.179026811922	1.591307655932
1	39992	10036.746238371366	0.5
1	39998	10039.93054627603	0.5
1	40001	10040.43054627603	0.554809697271

