version 2
run General-0-20200402-11:56:04-176109
attr configname General
attr datetime 20200402-11:56:04
attr experiment General
attr inifile omnetpp.ini
attr iterationvars ""
attr iterationvarsf ""
attr measurement ""
attr network networkqueue
attr processid 176109
attr repetition 0
attr replication #0
attr resultdir results
attr runnumber 0
attr seedset 0
param **.source.interArrivalTime exponential(0.5s)
param **.source1.interArrivalTime exponential(0.5s)
param **.source2.interArrivalTime exponential(0.5s)
param **.queue.serviceTime exponential(0.1s)
param **.queue1.serviceTime exponential(0.1s)
param **.queue2.serviceTime exponential(0.1s)
param **.source3.interArrivalTime exponential(0.5s)
param **.source.numJobs 10000
param **.source1.numJobs 10000
param **.source2.numJobs 10000
param **.router.randomGateIndex bernoulli(0.7)
param **.source3.numJobs 10000

vector 0 networkqueue.queue queueLength:vector ETV
attr interpolationmode sample-hold
attr title "queue length, vector"
vector 1 networkqueue.queue1 queueLength:vector ETV
attr interpolationmode sample-hold
attr title "queue length, vector"
vector 2 networkqueue.queue2 queueLength:vector ETV
attr interpolationmode sample-hold
attr title "queue length, vector"
vector 3 networkqueue.sink lifeTime:vector ETV
attr interpolationmode none
attr title "lifetime of arrived jobs, vector"
attr unit s
3	11	0.69079242851	0.292855176227
3	16	0.816304105205	0.367023910963
3	21	0.835339474572	0.207374095548
3	35	0.995190362759	0.065388256722
3	37	1.041937498349	0.199056734116
3	39	1.045077563661	0.185528745643
3	50	1.284229355759	0.182879485267
3	57	1.321262248059	0.015123085366
3	64	1.606319892399	0.459274863043
3	66	1.670490809667	0.486603102578
3	71	1.935599099613	0.545922394403
3	75	2.132527734131	0.073496442119
3	85	2.482089915996	0.113593894171
3	103	2.669252619688	0.259129806522
3	105	2.670136151647	0.269659238231
3	107	2.694541000721	0.194204096524
3	109	2.730160862006	0.266746743871
3	114	2.810359086067	0.23265734162
3	132	3.034706594461	0.135131878805
3	134	3.094481202143	0.185422201886
3	140	3.22171346717	0.09494945835
3	145	3.27679892444	0.355960174099
3	164	3.699544624791	0.350021368445
3	172	3.793150780768	0.412569879189
3	174	3.797069096409	0.850453706084
3	176	3.85480152749	0.852894532426
3	182	3.955388628007	0.764494713028
3	188	4.061171269342	0.671421799552
3	190	4.078762623885	0.600602505535
3	210	4.614772658909	0.684735523555
3	212	4.626468199888	0.642613510456
3	216	4.738785030041	0.637779581221
3	220	4.776940614378	0.857774078844
3	222	4.798828674029	0.765369832835
3	229	4.906865287369	0.15202999117
3	238	5.097547663214	0.656683157511
3	240	5.107651140745	0.570182676841
3	250	5.465009977979	0.834633171612
3	266	5.753529521453	0.211414590224
3	274	5.841202706429	1.012011275604
3	278	5.853841570072	0.68942866513
3	288	6.066265289772	1.040364788833
3	292	6.184184242479	1.124985832784
3	297	6.38450829473	0.871056826713
3	301	6.455633088452	0.83652749588
3	303	6.465498119294	0.826404377193
3	313	6.706617415075	0.281092277251
3	315	6.71952857009	0.87744019554
3	317	6.720468645156	0.789935708622
3	324	6.830553236165	0.684138277543
3	326	6.956546617176	0.393709900521
3	335	7.140674864325	0.344770251277
3	347	7.228987768521	0.237203231329
3	349	7.244821919144	0.20589328441
3	353	7.358085333341	0.195473712636
3	355	7.389557499426	0.207068671349
3	357	7.51120836477	0.218679668408
3	364	7.655835409778	0.090825089172
3	373	7.855172653365	0.141102440929
3	379	8.081546010951	0.361977572402
3	386	8.204562159926	0.139202795642
3	398	8.303696700798	0.446616002108
3	402	8.471788921253	0.242399663772
3	409	8.584317122937	0.302626018465
3	411	8.59270352022	0.443938597757
3	413	8.630277404461	0.185200468272
3	427	8.875411102671	0.164972918174
3	435	8.957238893781	0.238844926453
3	437	8.998179357231	0.423490627938
3	441	9.05368425033	0.223175709226
3	443	9.118094721162	0.107994337408
3	454	9.39760889614	0.097479244821
3	463	9.504104172453	0.19428463046
3	470	9.572539329534	0.096237505577
3	480	9.656928176793	0.292579575065
3	487	9.762829115331	0.273545965403
3	489	9.815661030647	0.225739067323
3	491	9.819290165443	0.283641751366
3	493	9.844298314941	0.126178647689
3	497	9.926914075852	0.015229362525
3	514	10.287937030473	0.107164277277
3	518	10.415210993739	0.424013037536
3	522	10.458645559333	0.238361161151
3	532	10.829144211449	0.435901491516
3	537	10.943534923688	0.497851285955
3	539	11.01452671641	0.185732570559
3	543	11.064255569861	0.018253860188
3	552	11.275970033564	0.203982633375
3	559	11.426547073858	0.288467818862
3	573	11.843232180202	0.550002098393
3	583	11.975716553396	0.027909707516
3	585	12.044509453823	0.520524532189
3	587	12.045687777015	0.33151721434
3	593	12.190467185214	0.348718630811
3	597	12.329096320416	0.207392115641
3	609	12.435750925182	0.355707226893
3	611	12.437620472224	0.134450363675
3	621	12.51362375443	0.116306158271
3	625	12.677719021196	0.252466398593
3	632	12.773605765615	0.291690109306
3	636	12.794349120941	0.017995734155
3	641	12.897418056064	0.373250679731
3	646	13.081666833092	0.387922626105
3	654	13.636951970674	0.095182970754
3	671	13.849944051397	0.687630485548
3	676	13.873496508739	0.176243606334
3	678	13.894099713587	0.091312571755
3	680	13.89486504131	0.59671744029
3	682	13.918785640467	0.07850883286
3	691	14.203110089512	0.060167898652
3	693	14.554557957566	0.460348588616
3	700	14.781850948262	0.123029219286
3	711	14.860546719527	0.072718608581
3	718	15.23521618091	0.419600273433
3	720	15.255012954443	0.437294362039
3	722	15.333210526531	0.330759721857
3	734	15.619363762891	0.136193172431
3	739	15.732399317482	0.214419891485
3	744	15.804895304496	0.320646819081
3	755	15.897483119747	0.358735954848
3	759	15.95938331906	0.487629010301
3	768	15.985418460215	0.141823668259
3	773	16.024076911676	0.183039137609
3	777	16.053539145151	0.171485505481
3	782	16.118072385071	0.162220728955
3	786	16.185387578207	0.037376329382
3	794	16.351375561382	0.388092276294
3	799	16.465281326449	0.498996061028
3	801	16.500841912043	0.447824173858
3	808	16.894991614637	0.221516601756
3	824	17.180428084934	0.238338678332
3	829	17.205394914758	0.025852276357
3	838	17.357183139257	0.102151484663
3	840	17.386419398452	0.353352489294
3	845	17.410611362929	0.232189493664
3	847	17.431247162289	0.092778187079
3	856	17.681003697265	0.13746799538
3	858	17.79334974722	0.294712806023
3	865	17.909717848934	0.051646055433
3	872	18.124633395639	0.184103626426
3	881	18.428784487683	0.206450772815
3	886	18.445691037599	0.031361492285
3	892	18.543647931679	0.003092629156
3	899	18.630326633741	0.137759203235
3	911	18.771423800036	0.132400964845
3	915	18.838383343613	0.266947237656
3	923	18.932133122986	0.219837997234
3	925	19.045224970905	0.210330798832
3	937	19.383838882873	0.087625388702
3	939	19.562837843321	0.213780762098
3	945	20.072442324067	0.121569047336
3	949	20.136372436828	0.020044219509
3	954	20.296690573087	0.487421757567
3	968	20.651029675325	0.093261185527
3	975	20.710900113547	0.241757741063
3	983	21.009120181094	0.430937008336
3	988	21.075704429758	0.400368090775
3	998	21.283080576068	0.498532469947
3	1000	21.298635012834	0.319659029541
3	1007	21.431504824333	0.629958577073
3	1020	21.757409723061	0.633960615912
3	1026	21.826204070907	0.222657294797
3	1028	21.857603860713	0.427439115668
3	1033	22.063348081861	0.595181705788
3	1038	22.129964367434	0.581630944118
3	1049	22.194713665827	0.410980140339
3	1051	22.222110008706	0.578677357643
3	1053	22.274217890814	0.492512525987
3	1066	22.61507945781	0.321252388345
3	1071	22.742555284673	0.436187396444
3	1081	22.903076737239	0.559306237696
3	1091	23.163733917471	0.609466768904
3	1093	23.165138576595	0.345890638392
3	1095	23.209048878263	0.134805523135
3	1106	23.355523156402	0.084528595713
3	1116	23.476268123836	0.199526938043
3	1121	23.532857577999	0.24808533798
3	1125	23.672344487125	0.205951137655
3	1127	23.849306469446	0.241784865899
3	1133	24.025184177389	0.010153408394
3	1138	24.090081310375	0.077238045585
3	1152	24.267401598422	0.156563207701
3	1159	24.3417599176	0.160437584671
3	1169	24.461677669856	0.09988629108
3	1173	24.533244143364	0.323438544202
3	1175	24.542277867772	0.244401627965
3	1184	24.772146277647	0.10789269085
3	1192	24.92296780081	0.394474752846
3	1194	24.9426139894	0.24909645313
3	1199	24.989424634723	0.180196612475
3	1201	24.990398175657	0.117651241975
3	1216	25.100815354247	0.066155733328
3	1218	25.216966305696	0.33246922492
3	1225	25.34255565413	0.344683606544
3	1227	25.405948866779	0.176381805423
3	1235	25.815810427011	0.067023187658
3	1240	25.85739290517	0.233439574633
3	1249	25.956294584806	0.166404163275
3	1253	26.012577104988	0.080564219719
3	1255	26.029996621025	0.079982320881
3	1265	26.165893338879	0.176167338776
3	1269	26.243377576829	0.20960159093
3	1274	26.276031126304	0.055306958875
3	1281	26.320979337194	0.0312785538
3	1293	26.501010438315	0.083107781482
3	1297	26.72407063469	0.327895453994
3	1301	26.885203834602	0.169765324986
3	1308	27.029796746244	0.219475579615
3	1310	27.08536263756	0.063122023073
3	1319	27.605196506895	0.150894352728
3	1324	27.696503472847	0.128708327105
3	1333	27.8987692742	0.132433653448
3	1342	28.104718396204	0.248602868037
3	1350	28.283575575154	0.089400140268
3	1355	28.373524538695	0.380177249526
3	1360	28.530614716052	0.490680714411
3	1364	28.716095184123	0.171906931179
3	1382	28.905618957463	0.116493606897
3	1384	29.236615362066	1.01238989062
3	1386	29.243091931345	0.971371729043
3	1395	29.436100560704	0.189391902479
3	1400	29.507809495596	0.172242366764
3	1402	29.519152376913	0.68561083502
3	1411	29.593994702568	0.071434238048
3	1413	29.643715631202	0.105557650836
3	1421	29.834631863156	0.075896477425
3	1425	29.911478120895	0.144511093172
3	1432	30.041377328443	0.280614245604
3	1434	30.051744412107	0.02831388847
3	1439	30.071109145452	0.20791992904
3	1446	30.295741744745	0.014810038697
3	1462	30.793675251528	0.21002665466
3	1464	30.800725446364	0.084609380677
3	1469	30.84930930352	0.116376277373
3	1474	31.011451001192	0.270653413158
3	1491	31.276119851974	0.175499815096
3	1499	31.481063815639	0.004673490174
3	1513	31.825912074517	0.706470673656
3	1530	32.057222021206	0.861488139336
3	1540	32.204219109745	0.545991054696
3	1545	32.280694459703	1.092911112176
3	1552	32.361592429216	1.171913169877
3	1559	32.484205650439	1.237612577697
3	1561	32.528919640699	1.220969064299
3	1566	32.578912111692	0.102452663802
3	1568	32.875984148753	1.45221675734
3	1575	33.134966763303	1.601554946347
3	1581	33.160394284227	0.03118815444
3	1583	33.194583952443	1.398156737607
3	1585	33.224321305234	1.056984460781
3	1602	33.642016800584	0.504285164953
3	1604	33.647622884867	1.340336496326
3	1606	33.673534110455	0.526936681575
3	1608	33.684728564569	0.332743126848
3	1616	34.01865174176	0.22212141832
3	1626	34.100895755582	0.718328018845
3	1630	34.108660420832	0.516235870959
3	1640	34.392791971738	0.656912874173
3	1645	34.4320081007	0.441801527441
3	1647	34.459163679868	0.387093131284
3	1654	34.632075872242	0.529941139093
3	1662	34.799205657969	0.177441348116
3	1666	34.937829632413	0.814714784643
3	1678	35.135178755468	0.215139487177
3	1682	35.208501289336	0.15272703783
3	1692	35.442950310228	0.138935850695
3	1700	35.787044714987	0.668049125299
3	1704	35.910512702592	0.741026772173
3	1708	36.005122876717	0.486652499298
3	1713	36.094452689471	0.577845999129
3	1722	36.147904318477	0.014074515543
3	1724	36.158443931468	0.57114068476
3	1735	36.329037034673	0.231186612317
3	1742	36.419847101857	0.531966531957
3	1744	36.449782402151	0.525148643542
3	1748	36.489891102855	0.121839331698
3	1755	36.595490671033	0.111003745619
3	1759	36.761204634473	0.031884104841
3	1773	37.045228648895	0.065718467533
3	1780	37.238715574675	0.3509063551
3	1784	37.463964861682	0.886023066281
3	1786	37.466652923633	0.474228720058
3	1788	37.60552065102	0.413819049387
3	1795	37.703773485292	0.278639711877
3	1799	37.815784491405	0.018461587291
3	1807	38.001313996603	0.381472017491
3	1812	38.065509344962	0.242804193917
3	1827	38.248286161711	0.400623209453
3	1834	38.329266031345	0.242018470491
3	1841	38.471650146821	0.477711893967
3	1851	38.683040828286	0.488911809702
3	1857	38.877045649274	0.563538832913
3	1869	39.000949300012	0.554518821552
3	1878	39.082608568897	0.510873641433
3	1880	39.099288144709	0.310558950458
3	1882	39.101749509116	0.297669428359
3	1887	39.157176356457	0.278440940939
3	1896	39.393805382842	0.429792106919
3	1900	39.417345969492	0.407035274245
3	1905	39.427817196835	0.370998890535
3	1907	39.462034665997	0.264872876855
3	1909	39.580867582026	0.272780731027
3	1911	39.658319260819	0.252210451479
3	1918	39.861931222514	0.178033161549
3	1934	40.376752536955	0.383608659218
3	1936	40.378454099328	0.383956784302
3	1946	40.738296685499	0.497093123034
3	1951	40.842879214778	0.556330272757
3	1953	40.845832395894	0.330412848458
3	1969	41.226757699974	0.109952996794
3	1971	41.294772639772	0.251988869385
3	1976	41.356577877486	0.290924064811
3	1985	41.531922689314	0.39338256985
3	1992	41.744038134999	0.335503345666
3	1997	41.795860919809	0.277989843085
3	2001	41.854336272451	0.181729487757
3	2003	41.922316942584	0.097204896848
3	2010	42.280673319667	0.125816654093
3	2019	42.631207866003	0.127049416956
3	2024	42.647464858062	0.038236836695
3	2028	42.864479234819	0.012340947151
3	2040	42.943230052956	0.049304089494
3	2042	43.023315334548	0.111039835945
3	2056	43.486653068893	0.327938186107
3	2065	43.567529545035	0.143001405864
3	2067	43.573614604977	0.236541595854
3	2087	43.859615914101	0.364711233074
3	2089	43.865918258527	0.364180540632
3	2094	43.893700279407	0.313126535097
3	2112	44.166033625213	0.583815045946
3	2153	44.785624637085	1.163620980271
3	2163	45.006947360238	0.893300341893
3	2168	45.096615943897	1.376436411941
3	2170	45.153141472028	1.38902794345
3	2172	45.505456606151	1.710435003249
3	2174	45.595296842795	1.300126247253
3	2176	45.609619169943	1.311847007997
3	2178	45.653393115554	1.648495526663
3	2180	45.663574679752	1.591881843237
3	2182	45.770582928715	1.661833696718
3	2186	45.812649695955	1.653124732362
3	2191	45.985088884502	1.632316829887
3	2193	46.036633639503	1.557758311799
3	2195	46.087260036211	1.575737910684
3	2197	46.091088915988	1.461136792694
3	2216	46.623938618476	0.284359373185
3	2218	46.814435761268	1.859778274577
3	2227	47.034975841648	1.223617093448
3	2229	47.066752775786	0.956991309696
3	2231	47.107624541209	0.865530017878
3	2233	47.11618662062	0.844463435957
3	2235	47.132166598663	0.251071010749
3	2237	47.277098785611	0.380086113285
3	2244	47.637122384796	0.016955926392
3	2253	47.70247693812	0.049968677143
3	2260	47.944350846298	0.285250350845
3	2269	48.062458645333	0.126885608508
3	2283	48.548216077725	0.55024649477
3	2288	48.700052992565	0.246458628299
3	2292	48.7160474139	0.687878547173
3	2300	48.831544867257	0.634061599053
3	2302	48.83244200599	0.389045522089
3	2311	48.95136526899	0.239169391575
3	2316	49.002828291174	0.10600025362
3	2318	49.012983168232	0.064995890892
3	2338	49.867899420509	0.484872187985
3	2347	50.258913497474	0.822644558084
3	2349	50.26295929304	0.787354033773
3	2357	50.301277443731	0.690532190245
3	2359	50.328099753058	0.687195487683
3	2372	50.454696564877	0.655673746581
3	2374	50.502725746258	0.3856776924
3	2378	50.505783375803	0.002221865202
3	2383	50.532777467359	0.3630722039
3	2385	50.566730906188	0.14890032202
3	2398	50.824409115729	0.21431931315
3	2400	50.887863547362	0.12958778165
3	2405	50.929282461839	0.256316178792
3	2412	51.109604446282	0.400330134182
3	2421	51.239296679379	0.152563911189
3	2428	51.326001541763	0.183403986343
3	2445	51.391018565668	0.075685431723
3	2455	51.46699778607	0.26683102117
3	2457	51.505626369174	0.132147401846
3	2459	51.557418713681	0.129423814542
3	2464	51.743807791839	0.397448161209
3	2472	51.875161775828	0.432354500541
3	2474	51.877092586347	0.433681160121
3	2476	51.902928018173	0.537707906246
3	2482	52.065704097031	0.663195569171
3	2486	52.250713019018	0.424532051655
3	2493	52.297428341664	0.365536786812
3	2495	52.305824345667	0.493371344754
3	2497	52.382887451747	0.085934886767
3	2510	52.421589512649	0.552733056527
3	2515	52.428433400187	0.388836610743
3	2517	52.435218987992	0.346935443349
3	2519	52.460406466461	0.048566058637
3	2523	52.52670922649	0.046122577761
3	2536	52.813611858374	0.24780205276
3	2544	52.892754538152	0.238504379477
3	2546	52.948431619296	0.222722348378
3	2556	53.04785106375	0.271947843034
3	2558	53.092581359494	0.062092498154
3	2565	53.312086698587	0.066636735878
3	2579	53.559957538625	0.148610369285
3	2581	53.644641177778	0.247983982079
3	2583	53.666049397244	0.21553186872
3	2591	54.082717734294	0.045341341833
3	2599	54.266799542336	0.353036330083
3	2601	54.296105892115	0.355461265793
3	2607	54.55083779608	0.080090868286
3	2612	54.578071480741	0.036524087713
3	2625	54.7720562166	0.074313565431
3	2627	54.789473138711	0.136763004571
3	2629	54.816010134488	0.066977853371
3	2638	54.916218293078	0.223506831026
3	2642	55.020417407707	0.019672068863
3	2649	55.277442791912	0.422322927537
3	2658	55.491015285718	0.611926821552
3	2666	55.653004958144	0.333657274823
3	2673	55.80954771207	0.339293071464
3	2682	56.076650209421	0.851496850546
3	2694	56.204729841728	0.547001953391
3	2696	56.233189860127	0.293931161717
3	2708	56.617381490473	0.718275824149
3	2710	56.634022083556	0.188808686032
3	2717	56.727557682205	0.628794594238
3	2723	56.870599020718	0.233851589652
3	2725	57.017648586323	0.849951051456
3	2727	57.064927940794	0.502144546726
3	2746	57.475503195328	0.156963835461
3	2750	57.484947777366	0.356440821677
3	2755	57.526007686004	0.37783538375
3	2757	57.612775595911	0.771214584804
3	2759	57.678725875918	0.326538032449
3	2761	57.739073755161	0.869581328031
3	2763	57.760643739289	0.27707819085
3	2770	58.093049564451	0.099685115029
3	2782	58.377943612251	0.04401152378
3	2786	58.683490021339	0.426439494835
3	2804	59.112666141166	0.500382720647
3	2806	59.164909065501	0.400946559678
3	2808	59.176295131232	0.327304081013
3	2817	59.38646448964	0.545421735934
3	2823	59.477205781634	0.486339680145
3	2836	59.849693219043	0.840204071402
3	2852	59.961729127319	0.774975314606
3	2858	60.079869667178	0.793980852785
3	2865	60.245609119245	0.792622597372
3	2867	60.248319089574	0.391684962079
3	2875	60.306412281821	0.842163059093
3	2877	60.453365613408	0.926603616259
3	2879	60.500052831154	0.897174937278
3	2884	60.544279950055	0.937609386649
3	2888	60.641477589363	1.033466696789
3	2893	60.650368011853	0.651535388671
3	2895	60.662294498851	0.661553787402
3	2897	60.670781871232	0.435018458553
3	2899	60.671978123321	0.060597323419
3	2903	60.860861526133	0.038863356623
3	2911	60.987229905541	0.045827456306
3	2918	61.124438196513	0.207840625091
3	2926	61.159042431239	0.207897110403
3	2928	61.165702944963	0.148026905415
3	2932	61.230041048752	0.030697738254
3	2936	61.275000705967	0.042825802881
3	2942	61.358170507981	0.009238751876
3	2952	61.532345978201	0.05898111713
3	2954	61.569571116861	0.217495735228
3	2963	61.873629730885	0.238781550548
3	2968	62.052571444476	0.273609462353
3	2975	62.108697260431	0.008512301782
3	2982	62.366517173024	0.081147090055
3	2989	62.573706646348	0.14397361
3	3000	62.838205022187	0.235188481274
3	3009	63.008217415113	0.312256816517
3	3011	63.069994405513	0.196241617768
3	3013	63.093802337257	0.341139377565
3	3018	63.206570016591	0.270891770345
3	3024	63.349079681072	0.044193318887
3	3039	63.595686259235	0.327195174071
3	3043	63.670814550595	0.003466470256
3	3048	63.770223252815	0.390192992763
3	3053	63.946048474366	0.443745350568
3	3061	64.10350148629	0.586384088733
3	3063	64.105497802917	0.600611536067
3	3075	64.214787453694	0.624712507501
3	3080	64.279594489662	0.170134016778
3	3082	64.305861217373	0.139580761491
3	3089	64.53110643253	0.051693527645
3	3101	64.803973908952	0.244593202132
3	3105	64.927381911626	0.262796816167
3	3107	65.015903596091	0.088760436274
3	3116	65.473360799425	0.165859338691
3	3127	65.632519010733	0.239097177967
3	3129	65.637229594482	0.132265487702
3	3133	65.759513722794	0.175796440372
3	3141	65.862309731397	0.073579332701
3	3148	65.902128657109	0.30876679271
3	3155	66.032203191798	0.293584842096
3	3160	66.052201876453	0.281740705011
3	3165	66.215165677747	0.404455769366
3	3169	66.363909929569	0.403995324442
3	3191	66.780550821747	0.083897328293
3	3198	66.879365687064	1.003696064005
3	3203	66.933269637918	0.5445067172
3	3209	67.045408007189	0.80366728516
3	3211	67.069164561482	0.657256887805
3	3213	67.102391113842	0.062239802435
3	3221	67.192370646845	0.659539398248
3	3235	67.399220145567	0.654147033878
3	3246	67.443142880371	0.773658613526
3	3248	67.452286745175	0.198132858538
3	3250	67.462429223514	0.144290364444
3	3252	67.511278152153	0.781705705072
3	3254	67.544105642292	0.720043936852
3	3266	67.674834780792	0.44442879518
3	3268	67.710399716203	0.743477321412
3	3272	67.795738784825	0.251481276881
3	3274	67.816454128842	0.252067667365
3	3285	68.088956606549	0.295202474404
3	3290	68.247756661646	0.341439633001
3	3299	68.426271462884	0.464075171171
3	3308	68.554281721161	0.571670736247
3	3320	68.741391718813	0.041514639449
3	3327	68.781565634005	0.434747661386
3	3332	68.810529203798	0.438099128125
3	3336	68.829241267863	0.107427849523
3	3338	68.869328889228	0.094983554437
3	3340	68.887305298045	0.425850621249
3	3344	69.079789190565	0.637994638733
3	3354	69.345342483127	0.521997797419
3	3356	69.362466209382	0.457311816918
3	3361	69.508728301868	0.259466217528
3	3367	69.701873991057	0.070067104216
3	3373	69.858891709677	0.040943931267
3	3382	70.09163913523	0.024546948214
3	3391	70.157261486651	0.548351016174
3	3397	70.379436206901	0.633599616813
3	3414	70.592147874152	0.731781195335
3	3423	70.685092452542	0.473274507087
3	3427	70.696914072046	0.017630367039
3	3429	70.69817186645	0.589070198921
3	3434	70.755454925212	0.454317471834
3	3436	70.759599894312	0.636364154315
3	3443	71.001037127106	0.621164575091
3	3458	71.309612590222	0.925956952271
3	3469	71.505936675027	0.05872053713
3	3485	71.841193798555	0.936520764726
3	3490	71.996470475871	0.901532586995
3	3503	72.192332809967	1.059844335659
3	3507	72.260131362138	1.091796778803
3	3509	72.362038500958	1.883065288667
3	3516	72.476976990456	1.150772150897
3	3521	72.569052734774	1.894793445267
3	3525	72.570277318658	1.879357936205
3	3530	72.572791545455	1.149491216506
3	3537	72.60926054331	1.580106220922
3	3539	72.742764851743	1.580891041019
3	3544	72.768954810801	1.085452908546
3	3557	72.841299410808	0.843068557887
3	3559	72.843748356254	0.394840493398
3	3570	73.094212554805	0.869178829328
3	3579	73.217576882565	0.648374505831
3	3581	73.290990764198	0.705498060672
3	3583	73.303304914889	0.45632739276
3	3585	73.306419008234	0.454384148293
3	3587	73.334440156045	0.518154432826
3	3589	73.359853747331	0.279773004527
3	3591	73.373125650316	0.195243016795
3	3596	73.419277222811	0.239200482032
3	3607	73.808549604845	0.236080888445
3	3619	73.972687299476	0.365844723524
3	3623	74.000616089677	0.336924499515
3	3636	74.092045445924	0.134584440212
3	3641	74.194105694389	0.225363953125
3	3643	74.208486829868	0.227064865609
3	3649	74.47148818237	0.462499940109
3	3651	74.582585517006	0.166842438994
3	3661	74.788148127691	0.040222960546
3	3665	74.850722564798	0.397592271458
3	3672	74.922679835727	0.072257181554
3	3682	75.030654345196	0.110970769968
3	3684	75.090478866731	0.135534109207
3	3688	75.202914367457	0.034009958314
3	3694	75.638364709399	0.254074343717
3	3698	75.698186446876	0.167124879521
3	3712	75.910093442155	0.224883099168
3	3714	75.949563422077	0.196274792404
3	3721	76.079591095022	0.289081104752
3	3725	76.135823337519	0.322806106835
3	3731	76.24141442745	0.237964119586
3	3733	76.305912011219	0.179550883045
3	3735	76.34604943874	0.108410492076
3	3740	76.380672936651	0.198749810645
3	3744	76.450700356516	0.001396206825
3	3754	76.633263754381	0.029586720719
3	3759	76.790332669731	0.269149769484
3	3780	77.120095788576	0.490018478199
3	3782	77.135867766565	0.265179062541
3	3784	77.136400186405	0.608416898164
3	3797	77.211142053957	0.15446534572
3	3799	77.216384655842	0.357816525539
3	3803	77.451590244349	0.481051633823
3	3807	77.556923805703	0.47446598045
3	3809	77.573414481297	0.378216751456
3	3811	77.576481868865	0.191517839386
3	3821	77.834031242759	0.34329275197
3	3823	77.85454294031	0.256119898884
3	3835	78.364803685414	0.27699889678
3	3839	78.507535821881	0.316896473266
3	3844	78.684126279569	0.213880728542
3	3851	78.853205056316	0.074535844093
3	3860	79.096524789405	0.027921603828
3	3866	79.255776503517	0.111204888636
3	3871	79.411504062007	0.265143728596
3	3875	79.705636083824	0.686412564476
3	3882	79.903075988477	0.275997102116
3	3887	80.069458217448	0.305515013045
3	3906	80.492908414362	0.361253454321
3	3913	80.614739691978	0.419010438988
3	3915	80.627275578244	0.396782181238
3	3917	80.707669835018	0.445154678977
3	3922	80.863742754788	0.548545852559
3	3929	80.907745779248	0.591163367614
3	3935	81.074887365886	0.176111354363
3	3942	81.223481334236	0.235405801181
3	3953	81.571400754028	1.203383714021
3	3955	81.637765521551	1.129895172883
3	3957	81.660429993394	0.673926368141
3	3964	81.886299195812	0.806835025067
3	3966	81.933355643433	0.089047755361
3	3980	82.20994518641	0.176307837384
3	3984	82.250209882879	0.130436007528
3	4007	82.967444861364	0.844432985618
3	4028	83.588606299003	1.374279318994
3	4030	83.610784663936	1.199873123009
3	4032	83.663961257114	1.137673797699
3	4034	83.976598121519	1.224138243197
3	4036	83.994548991118	0.902985147918
3	4038	84.034662526074	0.717437890085
3	4042	84.258879991785	0.885191820097
3	4046	84.291849843778	0.894060127192
3	4054	84.386694810892	0.145071748791
3	4067	84.574679481155	0.181909513286
3	4069	84.58715905827	1.028284158273
3	4076	84.655785774022	0.380350583068
3	4078	84.675811069514	0.252002485664
3	4088	84.742110570558	0.282618181399
3	4092	84.785173121168	0.268443367313
3	4097	84.805869078938	0.155056748223
3	4102	84.943301158347	0.238447673991
3	4109	85.011583378115	0.261365669642
3	4119	85.343793032028	0.38599908229
3	4132	85.684568035039	0.595720601034
3	4134	85.823611243987	0.299559055904
3	4143	86.052078157883	0.473123646283
3	4147	86.095900926911	0.514281807771
3	4149	86.099336427627	0.730697587613
3	4151	86.101162637576	0.150829847367
3	4153	86.109813915222	0.025658877933
3	4162	86.283999146407	0.14517185235
3	4164	86.303474181164	0.268353070925
3	4169	86.471449901547	0.226141709482
3	4185	86.651773764237	0.163997483105
3	4192	86.771285063712	0.240041489145
3	4196	86.801906020439	0.216565281597
3	4204	87.077779184926	0.300693837772
3	4206	87.091270017594	0.445520502662
3	4208	87.12400545419	0.458495873001
3	4217	87.49273170172	0.234799840262
3	4219	87.643876077505	0.414612833594
3	4225	87.993546842787	0.189301483346
3	4234	88.18241013843	0.267223269957
3	4236	88.445485955046	0.435266679649
3	4243	88.572419288358	0.428214397709
3	4247	88.678395157743	0.151357860815
3	4254	88.735635756041	0.111843851856
3	4264	89.009503979299	0.300718359976
3	4268	89.09564002095	0.225139563918
3	4282	89.245867961738	0.224283726235
3	4288	89.445831112738	0.326571132424
3	4290	89.465030526643	0.355597724918
3	4297	89.570873507483	0.380350983524
3	4302	89.650468884382	0.249971004787
3	4309	89.819330546723	0.445305347741
3	4328	89.980813226171	0.445595469802
3	4330	90.004895015194	0.169004233978
3	4338	90.050619767681	0.338053798569
3	4348	90.279006862033	0.392881250453
3	4350	90.310877496241	0.427195512035
3	4364	90.580803976702	0.501245460055
3	4366	90.68213133776	0.845378060648
3	4370	90.712321372541	0.859526185164
3	4372	90.771479168913	0.913974278256
3	4385	90.913116001623	0.533686485242
3	4398	91.040971497074	0.338718622727
3	4402	91.06062470635	0.680849295194
3	4411	91.115937828462	1.178246071247
3	4418	91.197058637898	0.741636284961
3	4425	91.296949414889	0.475417164729
3	4434	91.400888283794	0.574964121447
3	4442	91.564601286441	0.69332611522
3	4449	91.648832598239	0.758428974407
3	4461	92.005545077918	1.065780922809
3	4471	92.184681468938	1.189598935827
3	4481	92.480124088217	1.486935559983
3	4486	92.632258424721	1.623565062587
3	4488	92.663173579844	1.606125879911
3	4500	92.791552258115	1.635270902389
3	4507	92.911273407444	1.827672248311
3	4509	92.979389824326	1.778258463563
3	4515	93.298969467791	2.197253177225
3	4519	93.402088885863	0.564628726657
3	4521	93.430401738348	0.16674145146
3	4526	93.540371669696	2.181833761168
3	4535	93.758818026344	2.394740899548
3	4545	93.942709813785	2.502188252705
3	4550	94.080551479975	2.604308126955
3	4552	94.093814366123	2.547021625577
3	4565	94.335161105685	2.68851485762
3	4583	94.447592865246	2.720133796763
3	4602	94.723808696756	0.471377440382
3	4604	94.769455058159	2.983015482582
3	4608	94.817705476614	2.959365553296
3	4610	94.82021357357	0.438480682326
3	4615	94.938868817725	3.050934795524
3	4617	95.046907605533	3.129589215338
3	4631	95.364263718802	3.351667797888
3	4642	95.602795784542	1.980504063165
3	4644	95.630573083953	1.209377214384
3	4649	95.740460171384	3.322693183212
3	4651	95.779779819862	0.208652492786
3	4658	95.837519111366	3.174199249958
3	4662	96.053246758241	3.311345185652
3	4664	96.057601822372	2.969105253992
3	4673	96.182036330157	2.782183257934
3	4675	96.232491322962	2.61773893397
3	4677	96.316986847255	2.413638494926
3	4679	96.33531134373	1.696846393928
3	4683	96.367287464768	1.586121917149
3	4690	96.487861110263	0.969335956715
3	4702	96.827706546893	1.241221643465
3	4704	96.92309798923	1.135260313694
3	4706	96.967899736945	1.03456950098
3	4708	96.971683383124	0.81935944582
3	4710	96.979571481426	0.799632001837
3	4712	96.981006885223	0.616392194509
3	4718	97.394713126386	0.936537030606
3	4720	97.417717245518	0.722489542605
3	4737	97.53693917675	0.309608473682
3	4739	97.618809372727	1.1037608406
3	4746	97.744129767141	0.273775617417
3	4751	97.774003949235	0.472116991698
3	4758	97.883626881462	0.446942066664
3	4763	98.029812613122	0.498514125065
3	4765	98.104829821865	0.391576019226
3	4773	98.173851678842	0.301295141888
3	4791	98.505979330748	0.384517080893
3	4804	98.657935780349	0.529232919858
3	4814	98.7738931758	0.604869125558
3	4816	98.817881619682	0.560827815056
3	4821	98.958832995568	0.671879372324
3	4828	99.045010904465	0.648746543412
3	4830	99.053158605101	0.64686187772
3	4838	99.17852721105	0.139545747155
3	4840	99.182372082881	0.742141049175
3	4846	99.299066577857	0.780007704752
3	4853	99.34498808766	0.156942910827
3	4860	99.444828457683	0.732356537665
3	4862	99.662087713058	0.389050921116
3	4866	99.796653831808	0.467943110873
3	4870	99.94600921283	0.590371160837
3	4881	100.109859351354	0.157639813567
3	4886	100.239633145665	0.48667496282
3	4894	100.478758235207	0.418886864793
3	4896	100.527931487635	0.630918220891
3	4900	100.729140870353	0.702174299178
3	4912	100.822808647903	0.072592598961
3	4914	100.85486991364	0.097788067207
3	4919	100.865636912368	0.266404019097
3	4937	101.086869468207	0.338817845056
3	4939	101.190586656489	0.403157152129
3	4941	101.268636495425	0.476829288982
3	4950	101.310926607007	0.399355660978
3	4952	101.329335974475	0.244885513182
3	4954	101.335750453726	0.045395192882
3	4964	101.545749352303	0.240634008125
3	4972	101.762429535884	0.265673489025
3	4977	101.800929577629	0.119759452965
3	4982	101.82744109883	0.144336737534
3	4984	101.926830851393	0.238690999698
3	4991	102.134544308931	0.097363467773
3	5002	102.356332563103	0.189270530884
3	5006	102.614419816981	0.44577022531
3	5008	102.684992456848	0.290440673885
3	5013	102.760854949046	0.479841224705
3	5022	102.824967253596	0.063552672826
3	5032	103.160185109398	0.38601402927
3	5034	103.191202445208	0.119506697692
3	5056	103.721767895047	0.353792867403
3	5076	104.008419254778	0.57534113431
3	5086	104.335019298347	0.724399877913
3	5096	104.564732580071	0.93313939544
3	5124	104.957626118292	1.305161068383
3	5128	105.078684778034	1.349015291266
3	5130	105.145957470368	1.390904558225
3	5132	105.168523104934	1.211614620295
3	5140	105.192709963989	1.383945388815
3	5144	105.217316389682	1.385566604978
3	5146	105.22341643698	0.943949574773
3	5151	105.234396592641	0.695818006555
3	5153	105.254251760464	1.350466528444
3	5155	105.259471329598	0.468296884714
3	5164	105.377712423078	1.283632792866
3	5171	105.4583026405	1.216994672081
3	5173	105.496234277207	1.912873650686
3	5184	105.587895114297	0.380180438368
3	5189	105.662673198808	0.285604872674
3	5191	105.709255778764	2.008122287277
3	5193	105.739880503206	0.325571197841
3	5195	105.740038559729	2.001083144731
3	5197	106.017558723274	2.159917688658
3	5199	106.028247562963	2.109549602152
3	5201	106.064659061519	1.129129457609
3	5203	106.098448004109	1.964093891036
3	5220	106.431869933049	0.268492279785
3	5222	106.508488172641	1.431510249746
3	5229	106.57325910902	0.328050395275
3	5234	106.612003190476	1.770010954161
3	5242	106.705556690586	1.857062587139
3	5244	106.764052901835	1.388681904449
3	5246	106.775063162735	0.525382510923
3	5248	106.781165122132	0.37376534448
3	5255	107.009529442408	0.736671704948
3	5257	107.05941133131	0.742235602121
3	5259	107.123691879788	0.567099278596
3	5261	107.140430821629	0.166592247332
3	5270	107.203597364402	0.036047112156
3	5272	107.233114022787	0.065359995779
3	5276	107.265720312718	0.022299241921
3	5290	107.452638484023	0.096367960198
3	5304	107.725643851619	0.399200178864
3	5306	107.754114812449	0.371668910855
3	5311	107.797782379904	0.269287703067
3	5332	108.20347043475	0.67435702568
3	5334	108.216904440524	0.529077701347
3	5336	108.228810949667	0.098008460116
3	5349	108.590358248964	0.731748493345
3	5356	108.771752848521	0.849392884606
3	5360	108.839863890389	0.806250083849
3	5362	108.852054370002	0.784139067843
3	5364	108.962080146276	0.56719964226
3	5366	108.965445515409	0.261994482705
3	5378	109.243784786477	0.436860287145
3	5383	109.568030044121	0.571936015412
3	5385	109.666840120599	0.480093149128
3	5397	109.928360423459	0.022014365099
3	5399	110.064379187287	0.268345741528
3	5403	110.210071143696	0.033847243222
3	5410	110.438498181985	0.072407733753
3	5418	110.639077227091	0.196414728635
3	5423	110.718695757017	0.135299433882
3	5425	110.786479108734	0.152995886287
3	5432	111.067487900629	0.082359734905
3	5443	111.411163506804	0.253259703105
3	5448	111.559029395194	0.404471215835
3	5450	111.698901017402	0.307877655607
3	5457	111.951536827316	0.060956508422
3	5466	112.470784690435	0.118545822455
3	5470	112.621401425837	0.48979477155
3	5475	112.851678493787	0.330189827762
3	5484	113.180292023944	0.321182750361
3	5489	113.261328556489	0.08773961649
3	5493	113.466051514033	0.072283325171
3	5500	113.670866492144	0.141762538491
3	5504	113.750074196069	0.011295186147
3	5508	113.907648806898	0.061039736873
3	5529	114.192456122314	0.214484525199
3	5531	114.252590139866	0.118514614931
3	5536	114.380389163885	0.225331529097
3	5540	114.439078659954	0.264502995682
3	5542	114.452717794855	0.296218472495
3	5544	114.4793370559	0.095498985678
3	5560	115.010864652984	0.037299052518
3	5562	115.073273803875	0.384691372807
3	5566	115.175595882484	0.600240656143
3	5575	115.244228501266	0.524837119833
3	5577	115.309949412077	0.210206628941
3	5584	115.389106632819	0.167641401145
3	5586	115.396212937804	0.164574279531
3	5588	115.433124972625	0.09463722693
3	5598	115.70256940222	0.109662996934
3	5613	115.936326944813	0.442674129581
3	5618	116.015505149304	0.201027765598
3	5628	116.208013903113	0.584387554486
3	5638	116.361152339075	0.700595714801
3	5640	116.379654510084	0.27097909968
3	5647	116.488562995771	0.579346204456
3	5653	116.71765356796	0.675207227723
3	5655	116.720604775995	0.529075555069
3	5657	116.809316246292	0.680645134063
3	5661	116.836641280351	0.601846267579
3	5665	116.872503331177	0.186121408007
3	5670	116.929729267493	0.494463791912
3	5684	117.139849095966	0.515132690947
3	5689	117.15024745215	0.325826436304
3	5691	117.176137260571	0.334282283666
3	5693	117.210514779831	0.082321309929
3	5698	117.246906118151	0.277731565688
3	5715	117.445422586619	0.399053513649
3	5717	117.448532950099	0.08946209547
3	5721	117.559614238277	0.054642748366
3	5730	117.736845637026	0.297840058635
3	5739	117.839923358399	0.560106431181
3	5744	117.989722426778	0.407011879788
3	5746	118.043736395067	0.350145959532
3	5756	118.13609523034	0.34874527875
3	5758	118.184832131966	0.368138292656
3	5763	118.230249385489	0.096163211328
3	5784	118.618467584992	0.275555260786
3	5786	118.710503901165	0.323366286272
3	5793	118.751768291336	0.33465221551
3	5795	118.809783619269	0.395138200786
3	5803	119.046938214398	0.529606423849
3	5805	119.083392689296	0.353272032638
3	5812	119.708738125815	0.042822023767
3	5828	120.119464422035	0.278212861079
3	5832	120.181472223557	0.347206865892
3	5842	120.283183627534	0.265171617026
3	5846	120.356521639396	0.215876301368
3	5860	120.58498603002	0.483048210102
3	5866	120.745844822431	0.483988477689
3	5885	120.952483790522	0.422476099518
3	5893	121.092220433806	0.786337317974
3	5895	121.094411148984	0.686052435803
3	5897	121.205790804865	0.322041694973
3	5905	121.29973965088	0.873572874335
3	5910	121.328547580899	0.729289143211
3	5914	121.518389781892	0.86072533594
3	5916	121.532618295542	0.739482569651
3	5918	121.6151870277	0.77545962782
3	5927	121.773864893972	0.116924810851
3	5932	121.809015337322	0.975278481228
3	5936	121.890027015375	0.434088877076
3	5941	122.041798852324	0.362708267817
3	5943	122.146352525639	0.257366056993
3	5959	122.430880732977	0.210156366962
3	5961	122.463933250347	0.221714408285
3	5968	122.524113772429	0.047364051969
3	5970	122.640767113449	0.367091839713
3	5980	123.011970172817	0.678665303661
3	5982	123.097125103756	0.282110682023
3	5991	123.279979070567	0.053732872985
3	5996	123.317626482932	0.068749799341
3	6000	123.323547793403	0.004218370408
3	6012	123.711707554303	0.044606627947
3	6014	123.792762316806	0.108998857123
3	6033	124.174976105157	0.367771661393
3	6042	124.351871619144	0.514055697764
3	6046	124.380322342297	0.489486606773
3	6048	124.393503654566	0.482752895394
3	6058	124.476939043743	0.200004951642
3	6070	124.707875080262	0.433427815551
3	6072	124.736617018286	0.373095591349
3	6081	124.773751724081	0.352205074147
3	6088	124.959335562407	0.392160722511
3	6100	125.174320093468	0.406299441165
3	6106	125.237791598228	0.618373880824
3	6117	125.424274712139	0.551616171385
3	6123	125.49832141282	0.735409239489
3	6130	125.521445463606	0.517288971928
3	6132	125.526080150723	0.204905731927
3	6139	125.605851548859	0.475581021372
3	6152	125.918503200804	0.740148569113
3	6154	125.952236597994	0.772023630632
3	6156	125.97976240099	0.678028820906
3	6158	125.998003547121	0.558931291115
3	6160	126.002678865014	0.638805466086
3	6162	126.021637253249	0.586294154347
3	6176	126.210591983172	0.302760454267
3	6178	126.213077428003	0.701840940835
3	6183	126.268681962863	0.701736933421
3	6185	126.305969190444	0.677623119655
3	6187	126.315854302316	0.565018762996
3	6194	126.390345373764	0.634808513939
3	6196	126.429975379827	0.093480430572
3	6208	126.619644582185	0.104530458366
3	6215	126.712107508264	0.035419547476
3	6219	126.825932622333	0.391254002891
3	6224	126.966619912007	0.154045603899
3	6238	127.114823917599	0.140027372568
3	6240	127.118150583666	0.086601112988
3	6245	127.195913298879	0.159813183881
3	6249	127.280924508429	0.072280116657
3	6256	127.392098418838	0.104384366126
3	6265	127.547595272585	0.110487575029
3	6272	127.686523355777	0.181046875009
3	6277	127.741375939972	0.11678343192
3	6281	127.83821908466	0.021877416984
3	6288	127.948373601841	0.028675402189
3	6300	128.22095897612	0.210772174452
3	6307	128.498362939987	0.444191350083
3	6309	128.579578710642	0.178295788182
3	6318	128.95812127211	0.051013477749
3	6320	129.080650297938	0.26124027847
3	6327	129.165281178075	0.068383884012
3	6333	129.334446651529	0.051164592585
3	6342	129.441158314233	0.135473293978
3	6346	129.62725029328	0.250096893269
3	6350	129.727472968397	0.311811806305
3	6355	129.781644376587	0.193280918066
3	6363	129.972708083704	0.31529462099
3	6367	130.19616532074	0.146206695063
3	6380	130.291128221762	0.086294095999
3	6382	130.382703073819	0.573391591478
3	6386	130.474396804058	0.627400135403
3	6388	130.488284724016	0.61133094063
3	6398	130.658276583871	0.223535463716
3	6405	130.87770910347	0.379555346739
3	6415	131.058824558322	0.08235313743
3	6425	131.13799985055	0.582454690048
3	6427	131.163643555943	0.588997633757
3	6429	131.250636426845	0.382460634339
3	6431	131.332339678159	0.803767500971
3	6443	131.520914477155	0.452166075159
3	6452	131.610507936935	0.248979947699
3	6456	131.732495186504	0.363035498176
3	6471	132.092253088634	0.533479004089
3	6481	132.159150179752	0.592955510537
3	6483	132.257680892236	0.568271573429
3	6485	132.333158376099	0.340074762282
3	6491	132.784948304702	0.816537419263
3	6493	132.808348473481	0.701240843198
3	6497	132.849991672459	0.38899051199
3	6502	132.878842771274	0.263021102511
3	6504	133.04576399483	0.20795988655
3	6511	133.175430467831	0.040154114807
3	6515	133.487532781236	0.019559129901
3	6522	133.810112970737	0.08167205912
3	6531	134.040237354328	0.223793506507
3	6542	134.28046676614	0.334823957232
3	6553	134.479375131273	0.345515709985
3	6562	134.719166691697	0.585140199878
3	6568	134.907981649087	0.76119717284
3	6570	134.908964212714	0.401899949877
3	6575	134.931524674371	0.432334086354
3	6579	135.049851320033	0.19071027726
3	6590	135.200880250373	0.45484486625
3	6597	135.320048727024	0.364554724153
3	6599	135.331935175718	0.267909832317
3	6601	135.357259087684	0.165031495155
3	6603	135.39603466169	0.272565386575
3	6607	135.473662653542	0.16187328045
3	6618	135.900955843392	0.478192702552
3	6625	136.158942732655	0.568597255083
3	6630	136.232253430112	0.641825097855
3	6636	136.431440357778	0.012459078118
3	6643	136.519477799814	0.635076143083
3	6650	136.560316772658	0.453295412165
3	6660	136.631896312717	0.268303927004
3	6665	136.763158058929	0.215285037634
3	6667	136.770784351203	0.265175176323
3	6682	137.159967710499	0.308986073034
3	6686	137.215564168286	0.148233954187
3	6688	137.221732441075	0.59514556478
3	6693	137.31675184139	0.14146536745
3	6711	137.769956417981	0.450509153083
3	6720	137.917293012537	0.519026694
3	6722	137.929851638012	0.26110409084
3	6724	137.933180214608	0.209059498936
3	6726	137.948368346085	0.40314662977
3	6731	137.999259012758	0.214499219508
3	6733	138.006538283817	0.149896019283
3	6740	138.225822948967	0.047976469039
3	6747	138.287560731924	0.012309154035
3	6754	138.56018349435	0.235629020032
3	6760	138.693745199516	0.066911532526
3	6762	138.699445386007	0.012796625004
3	6772	139.262415253955	0.167079746388
3	6780	139.439412850326	0.315775638832
3	6782	139.474698945937	0.234769127745
3	6787	139.613438325783	0.36017153909
3	6791	139.73289695119	0.004306513044
3	6810	140.29113816042	0.256283743916
3	6816	140.456481387957	0.238968881043
3	6821	140.525961880506	0.622416603431
3	6833	140.674634565079	0.741361207334
3	6848	140.761054210709	0.651062724183
3	6853	140.821130856152	0.291053843389
3	6871	141.002304868722	0.763301006782
3	6873	141.08282103238	0.385402402798
3	6875	141.149045838605	0.605986048648
3	6877	141.268341957199	0.389905452238
3	6884	141.327871554779	0.430336039401
3	6891	141.491474948341	1.217123982626
3	6898	141.633124552099	1.330971029546
3	6900	141.654046386952	1.316501140331
3	6907	141.827767886837	1.129832166524
3	6909	141.888904091523	0.615591977034
3	6923	142.128527821107	0.164201545178
3	6925	142.221072292573	0.774749760012
3	6927	142.238538578621	0.729691768679
3	6929	142.284773119936	0.507101851738
3	6931	142.415562625023	0.494010111808
3	6933	142.432279455755	0.409198089232
3	6940	142.465413402209	0.02689051742
3	6948	142.569301300535	0.025894288479
3	6952	142.645249746348	0.09873136442
3	6954	142.689330722856	0.138148433362
3	6963	142.944069551464	0.351533642853
3	6970	143.160885126634	0.427753598415
3	6982	143.285334065446	0.192716024454
3	6986	143.310873962394	0.402707126273
3	6992	143.587585729546	0.078985495626
3	7000	143.82602623239	0.188676388926
3	7013	143.962379703193	0.713736461691
3	7020	143.980062130179	0.678081472113
3	7024	144.063813057662	0.813849665583
3	7028	144.205679032566	0.664708826051
3	7033	144.446187838528	0.838359552074
3	7038	144.472199172344	0.719050909276
3	7051	144.600775376391	0.766444964704
3	7063	144.913659550274	0.949804080192
3	7065	144.920829002305	0.901231998973
3	7069	144.956206953759	0.754714001926
3	7071	144.981300940792	0.469072969954
3	7081	145.269569473351	0.647366355488
3	7088	145.316664050394	0.492903138441
3	7093	145.412536505497	0.110146714849
3	7100	145.643206005825	0.700622255115
3	7112	145.851309975738	0.630250020504
3	7127	146.160096658318	0.539758071336
3	7129	146.176326847852	0.510726577734
3	7131	146.245996821572	0.481952718927
3	7138	146.331326936112	0.534796478193
3	7152	146.602894844617	0.909019235875
3	7154	146.627733284682	0.919836324867
3	7156	146.713838758935	0.763667317896
3	7160	146.898784830402	0.834662023409
3	7165	146.916156985613	0.668357004553
3	7167	146.970118896696	0.455091484874
3	7171	147.016515866078	0.436171701945
3	7173	147.047728270386	0.458929905196
3	7185	147.097537492925	0.212227146527
3	7192	147.129221161603	0.150939891609
3	7194	147.150561927667	0.097274347828
3	7196	147.161775114756	0.079597491934
3	7203	147.396656192272	0.272819005354
3	7223	147.739794848418	0.48323626442
3	7225	147.780257920898	0.364394987317
3	7234	147.889534164527	0.006388718127
3	7245	148.018066124069	0.084758169359
3	7247	148.035745768683	0.601955342492
3	7249	148.035905352741	0.520434611999
3	7254	148.150621615375	0.535522425362
3	7263	148.287466688406	0.600193653211
3	7265	148.356480729901	0.163540969964
3	7287	148.569051528434	0.649886649579
3	7297	148.75336365869	1.049745613145
3	7302	148.787271775575	0.928217055862
3	7304	148.814719100334	0.297597319518
3	7306	148.823401850988	0.808367475108
3	7320	148.938985413969	0.781071560654
3	7322	148.95131563042	0.522788769131
3	7326	149.093124729172	0.633471457258
3	7346	149.295258791503	0.442250266493
3	7354	149.342347089777	0.169749060502
3	7356	149.376085238937	0.93240417797
3	7358	149.378279314461	0.682354908047
3	7360	149.45260221649	0.393893642722
3	7369	149.562057712925	0.733322386025
3	7371	149.577603461703	0.664642133754
3	7373	149.59968354942	0.403346463049
3	7375	149.634157717796	0.376763848244
3	7379	149.797542541251	0.309438336615
3	7388	149.922498993089	0.447393218174
3	7390	149.931004818699	0.194092556404
3	7395	149.980874822211	0.161956425732
3	7397	150.122335789629	0.284472398972
3	7403	150.568433154813	0.018879305172
3	7407	150.583101461362	0.01976035985
3	7412	150.594057553438	0.018476486197
3	7421	150.734248126843	0.09170173019
3	7430	150.835390760585	0.166706971618
3	7432	150.957389006411	0.203048816919
3	7434	151.000268736161	0.173839169341
3	7448	151.269979922293	0.241741973404
3	7450	151.451771469965	0.219496147306
3	7454	151.539826382379	0.2855751393
3	7461	151.709616416079	0.18439431995
3	7466	151.74709459545	0.045440036514
3	7478	151.86176372181	0.108943658392
3	7482	151.948816449195	0.116093232089
3	7491	152.08148239147	0.107583947493
3	7493	152.14273891567	0.277577485182
3	7495	152.26889734483	0.254508669595
3	7502	152.54776707496	0.253225170819
3	7509	152.705020334713	0.132312850348
3	7520	153.048946248764	0.136142655039
3	7522	153.064375509104	0.10777059379
3	7527	153.113281832334	0.146153814156
3	7541	153.41735650804	0.183419077044
3	7543	153.44749903693	0.191134870866
3	7552	153.53451505878	0.17635522597
3	7554	153.593251378286	0.110151790189
3	7558	153.616255584526	0.008446718302
3	7568	153.862217664088	0.123223602513
3	7573	153.871124398835	0.411597648478
3	7584	154.01338658784	0.170050556989
3	7588	154.148387052643	0.518348685304
3	7590	154.204931619326	0.377687092431
3	7601	154.599337587622	0.252235897253
3	7619	154.754383496919	0.661632745674
3	7621	154.805773952627	0.229856667045
3	7623	154.807116417919	0.45905074002
3	7625	154.828513691351	0.156428768665
3	7629	154.864116628452	1.8673131e-05
3	7633	154.966922663924	0.279781935015
3	7639	155.270166163953	0.309212819215
3	7644	155.307366465836	0.153723529122
3	7646	155.374665902533	0.177608369064
3	7653	155.828094178281	0.087920320144
3	7664	156.114409478176	0.112109502124
3	7666	156.116732885532	0.169664196132
3	7673	156.287454385858	0.235568205684
3	7680	156.346928655494	0.100167846338
3	7698	156.760126174086	0.426563386813
3	7700	156.778121815418	0.350979570653
3	7708	156.913223764647	0.300179157482
3	7719	157.077873509432	0.46117507694
3	7729	157.284305721941	0.575914216498
3	7731	157.28578409929	0.588582019798
3	7747	157.676590618317	0.831096072562
3	7749	157.69046297754	0.839378075855
3	7751	157.734469760241	0.24273166979
3	7758	157.812058168125	0.244375181791
3	7762	157.91156056797	0.301932807403
3	7774	158.150796983884	1.279470860304
3	7782	158.347077834733	1.399531241591
3	7784	158.34901977498	0.265710234098
3	7786	158.386260435661	1.377945583949
3	7790	158.43823465283	0.051073542948
3	7807	158.667129102049	1.604144672987
3	7809	158.73103100426	1.464187450661
3	7814	158.790561227726	0.738877452699
3	7818	158.830972193484	1.169935606893
3	7820	158.879292605752	1.114313122318
3	7825	158.940432822959	0.718273179626
3	7830	159.18239272597	0.867766377252
3	7835	159.221638745227	1.380620498361
3	7839	159.284378761584	0.47538125323
3	7841	159.505450992907	1.164392709955
3	7847	159.581565655188	0.332768304851
3	7862	159.848201275555	0.297167880804
3	7866	159.942506655461	0.377141467717
3	7873	159.991254676022	0.210452786879
3	7875	160.016259905826	0.390483782773
3	7880	160.064578903961	0.185471925341
3	7882	160.122043209963	0.168644274076
3	7901	160.467069677804	0.16939650084
3	7903	160.472229650028	0.130226178119
3	7905	160.49893228416	0.055321823032
3	7907	160.718522546174	0.365464370281
3	7914	160.770740367559	0.044487611131
3	7923	160.916452034839	0.060235899876
3	7927	160.974502787291	0.156064084687
3	7938	161.406994244036	0.433267193226
3	7943	161.419173726045	0.419772165589
3	7955	161.660671399175	0.655948756973
3	7957	161.687748396674	0.047735092914
3	7959	161.725612148428	0.462203202163
3	7969	162.095406395016	0.016060731027
3	7983	162.457266441521	0.979562037452
3	7991	162.61669752884	0.337142268399
3	8009	162.807046829783	0.933458373419
3	8011	162.834391176144	0.58830165613
3	8018	162.88596293137	0.426808002701
3	8020	162.917820659129	0.418316245033
3	8022	162.96685226071	0.912384990447
3	8029	163.029268493104	0.311678671208
3	8034	163.11788859923	1.026193209804
3	8036	163.217527070054	0.533645879722
3	8045	163.311437629556	0.995075150726
3	8053	163.55607412571	1.030983276683
3	8060	163.741601806051	0.728280047785
3	8062	163.750542644706	0.164801096276
3	8069	163.885965921671	1.04995515604
3	8081	164.27570711996	1.043044108546
3	8083	164.424188143193	1.150879507573
3	8087	164.552438319521	0.724155414367
3	8092	164.648061391951	0.099432082067
3	8101	164.882376126255	0.959722582029
3	8103	164.967313430455	0.762396895503
3	8107	165.053518891316	0.244222175175
3	8117	165.15933492665	0.283791391093
3	8129	165.512359875216	0.504630924264
3	8136	165.769902062221	0.691495413943
3	8138	165.830869586823	0.508805746054
3	8140	165.947137253344	0.294370976551
3	8142	165.985947009038	0.547158155744
3	8151	166.214866056397	0.227806685188
3	8173	166.64437095341	0.510364430996
3	8175	166.645950981563	0.371530503846
3	8179	166.759920596187	0.461688743392
3	8181	166.791509872937	0.077219544388
3	8191	166.900492341629	0.592191664086
3	8195	166.955416087546	0.618093517379
3	8197	166.994962896895	0.069339840639
3	8206	167.359678973483	0.995441288117
3	8216	167.482255164052	0.984987641984
3	8218	167.537143831633	0.912078672209
3	8228	167.614799450838	0.542975060288
3	8230	167.672603657552	0.878171510624
3	8242	167.880754001908	0.549197314973
3	8253	168.152794115477	0.714080107426
3	8255	168.156659015976	0.614446805592
3	8260	168.208360341459	0.530229303995
3	8264	168.452269744588	0.12396183739
3	8273	168.6415242057	0.9395534496
3	8284	168.774777648478	0.825236916812
3	8294	168.885380646507	0.833295980105
3	8299	168.961451947704	0.949372237606
3	8301	168.974362467112	0.506536050082
3	8307	169.04399598752	0.41919751684
3	8309	169.076155233299	0.231768273196
3	8311	169.110053243044	0.121254880135
3	8316	169.210733218524	0.195227497836
3	8326	169.485664527242	0.021104269942
3	8341	169.674792353151	0.326361762389
3	8350	169.951724330001	0.470218361691
3	8352	169.99158489656	0.776799931456
3	8354	170.009675140278	0.455641935752
3	8361	170.275384370531	0.659406753522
3	8363	170.442555339838	0.598631847968
3	8372	170.624711481751	0.744829435303
3	8374	170.639597074815	0.566380977222
3	8376	170.669623000222	0.128735994009
3	8378	170.767806823866	0.203618981537
3	8382	170.958044830951	0.113891902475
3	8394	171.188595278738	0.065604788184
3	8407	171.441777996908	0.409475685868
3	8409	171.471459127532	0.475794184827
3	8417	171.60449178637	0.376926643826
3	8426	171.807233240223	0.184243969038
3	8428	171.839499718501	0.843382929604
3	8430	171.871430713228	0.772274734055
3	8436	172.002136698872	0.211230658787
3	8441	172.174160863161	0.239484077749
3	8450	172.31599021939	0.332347875343
3	8465	172.533849887956	0.359684929804
3	8474	172.752655091704	0.443417010352
3	8476	172.7649308803	0.412390300207
3	8482	173.054021571349	0.526751456028
3	8491	173.097359877823	0.42613762544
3	8498	173.140472174236	0.07271978067
3	8500	173.153055271974	0.080321850278
3	8510	173.236628587139	0.486363519779
3	8515	173.273570813072	0.135110817637
3	8519	173.342686776109	0.494133290833
3	8524	173.37335637662	0.390535673415
3	8526	173.437303530501	0.236587338199
3	8528	173.467420302366	0.190205867028
3	8535	173.696219305461	0.061724815946
3	8539	174.382916467293	0.153303017922
3	8546	174.57924410063	0.110740746711
3	8560	174.89932169724	0.261096385502
3	8581	175.264214029303	0.236751503102
3	8583	175.278617317429	0.53736455718
3	8585	175.280968402595	0.35752093036
3	8587	175.308840311794	0.559974563482
3	8589	175.384577691694	0.436967385016
3	8596	175.469600279956	0.426079916249
3	8601	175.488567065252	0.31947661003
3	8611	175.693517357733	0.273814753929
3	8620	175.740033773642	0.101213198183
3	8622	175.751652908486	0.057544116054
3	8639	175.988871317711	0.250178366713
3	8646	176.032320622294	0.278390348544
3	8648	176.052292829739	0.191220658387
3	8655	176.226510290384	0.21427880819
3	8657	176.230760061561	0.275416021068
3	8659	176.289653374269	0.221490901107
3	8667	176.479319036081	0.174790514363
3	8675	176.55988085182	0.175531745789
3	8679	176.637516842946	0.250404897041
3	8686	176.915603135517	0.300418292474
3	8688	177.063471289183	0.273883091931
3	8697	177.542262479338	0.324019170385
3	8706	177.755883159024	0.223007962183
3	8718	177.974808956818	0.380683689605
3	8722	178.079273164035	0.106200642224
3	8724	178.188513546669	0.134216034209
3	8729	178.22101267749	0.576030902295
3	8731	178.265416414701	0.469321683574
3	8738	178.645053172249	0.229039800492
3	8746	178.772359195272	0.016666115428
3	8753	178.911477546107	0.191883585931
3	8760	179.131711537537	0.364263550669
3	8768	179.187941074314	0.180246092706
3	8772	179.228368459263	0.402352605202
3	8776	179.357880793266	0.143453196155
3	8783	179.616321140053	0.360853209397
3	8785	179.656437414693	0.253973628688
3	8802	179.782180264944	0.11356440407
3	8811	179.957951006171	0.28921004344
3	8824	180.041857565846	0.359869814553
3	8826	180.044349819399	0.3583897042
3	8831	180.091837129102	0.145903386623
3	8836	180.094815677683	0.324770455696
3	8838	180.105223584295	0.326590106156
3	8840	180.113879144828	0.324030367586
3	8845	180.130377686732	0.103140228988
3	8852	180.295684124666	0.080573929105
3	8866	180.725293694713	0.316292812729
3	8868	180.805914181771	0.288180285635
3	8872	180.832169680347	0.208244690537
3	8879	181.15310083711	0.334691677156
3	8886	181.235371133914	0.339367662176
3	8897	181.520393918082	0.212942785953
3	8899	181.631332612481	0.301764098941
3	8911	181.908890103854	0.720727008184
3	8913	181.930156347576	0.434331316482
3	8917	181.950100394512	0.30174589003
3	8926	182.051155331955	0.318380553019
3	8935	182.236656784813	0.100464422083
3	8937	182.250638549135	0.306097717279
3	8944	182.332993300727	0.365627313721
3	8949	182.376215754384	0.342990534687
3	8957	182.472158689475	0.350123868976
3	8959	182.487006247078	0.161097862008
3	8966	182.704028966492	0.216875626345
3	8972	182.913375089358	0.11068706482
3	8984	183.134493180057	0.30267036625
3	8989	183.167058268841	0.126050819275
3	8991	183.200057110608	0.074042407187
3	9003	183.778809878496	0.358579894677
3	9007	183.801332173655	0.193085547316
3	9009	183.818581904292	0.026342579374
3	9013	184.12399422976	0.022141597998
3	9017	184.38685743709	0.056163745359
3	9029	184.661107607796	0.260964488506
3	9033	184.725028519709	0.199130946131
3	9043	184.906456677322	0.137205631662
3	9047	184.958714614506	0.246574084865
3	9062	185.378213312093	0.44911081116
3	9064	185.439675633691	0.127798149368
3	9066	185.444756859328	0.269411789864
3	9073	185.622963896422	0.134788775622
3	9079	185.82296115006	0.093184066988
3	9089	185.945867756922	0.130662766088
3	9091	185.989062772594	0.135631541036
3	9100	186.166459669824	0.144679333731
3	9107	186.353731022335	0.270788983186
3	9112	186.443900303638	0.112662917698
3	9119	187.031833411398	0.094982501287
3	9148	187.643839782288	0.236271674763
3	9152	187.690465200013	0.533389406888
3	9154	187.699856987459	0.165348522009
3	9160	187.764153127942	0.324312370058
3	9162	187.794428496473	0.347200522274
3	9164	187.836343232884	0.295874500201
3	9182	188.075916090532	0.393298662468
3	9184	188.084276716673	0.35857828532
3	9186	188.137674479163	0.417652091234
3	9200	188.530006416001	0.630015522915
3	9202	188.554541638271	0.56119719125
3	9206	188.609794195428	0.449333923349
3	9211	188.774275467347	0.44321840976
3	9215	188.901149966071	0.342324799161
3	9217	188.942583522559	0.427855288421
3	9222	189.158880793544	0.35168907526
3	9239	189.640466524438	0.392132781785
3	9241	189.651364699637	0.348047522407
3	9245	189.767350646662	0.269060064812
3	9250	189.798794032368	0.044665068501
3	9257	189.938650567343	0.074726969555
3	9266	190.200708139266	0.14225651688
3	9275	190.35096570522	0.146050147246
3	9282	190.376655932788	0.256480103659
3	9287	190.571366243232	0.283667939872
3	9289	190.664822291824	0.307729887282
3	9304	191.168946820924	0.198170713078
3	9312	191.385857733351	0.527887801991
3	9318	191.545072685334	0.638693320457
3	9320	191.561234718118	0.646021948585
3	9332	191.634703447669	0.172041432178
3	9334	191.667288546683	0.700807506339
3	9345	191.776426954755	0.180513285927
3	9347	191.777275155923	0.143782979069
3	9351	191.891301738654	0.406516552478
3	9363	192.105028678718	0.169962846397
3	9365	192.112473162268	0.31585999589
3	9369	192.273199881676	0.379364400827
3	9373	192.316456149501	0.001629079445
3	9378	192.522160383963	0.252835058931
3	9382	192.703732302758	0.043690441329
3	9389	193.026030146876	0.184595311092
3	9398	193.580161543098	0.4709551778
3	9400	193.636258376537	0.319150016273
3	9414	193.873039802093	0.018441679088
3	9418	193.943625807477	0.165404063652
3	9420	194.056231106774	0.198542183826
3	9427	194.22392199223	0.102817527813
3	9429	194.313712636907	0.372821055638
3	9436	194.374421608891	0.016171641661
3	9443	194.597918031382	0.096391618144
3	9452	194.658002194022	0.05277909363
3	9462	194.921219844719	0.007125741242
3	9472	195.282805743057	0.649050344019
3	9478	195.409906115973	0.727032708302
3	9487	195.764273553212	0.980410337494
3	9494	195.970087441027	1.186007377039
3	9501	196.032942414433	0.038253919507
3	9506	196.085989042146	0.903193821493
3	9508	196.108206962113	0.800856870525
3	9521	196.238788808242	0.912429894418
3	9523	196.297982419182	0.80323996971
3	9525	196.309771637602	0.698170801696
3	9530	196.327940178121	0.126597083109
3	9539	196.448007330119	0.51937593929
3	9546	196.516657928077	0.043308641544
3	9558	196.747173448814	0.410714207403
3	9560	196.80009104914	0.106292491142
3	9562	196.859093266398	0.513818464677
3	9566	196.941909545917	0.308457099186
3	9571	197.020487532038	0.139589748614
3	9578	197.193107811543	0.065463407053
3	9590	197.325891520416	0.026042215455
3	9599	197.496404400419	0.201434896296
3	9603	197.556167039733	0.142643652628
3	9610	197.744126074974	0.395188468977
3	9612	197.744721721009	0.178051498502
3	9614	197.747406774171	0.205025219434
3	9625	198.152513856225	0.295413523066
3	9635	198.270573734664	0.172618150709
3	9639	198.379960577079	0.23772056972
3	9651	198.522205676496	0.21832130896
3	9659	198.785915959283	0.51997644925
3	9666	198.878065263847	0.469035597746
3	9670	198.956998837139	0.489148112434
3	9683	199.236844007583	0.596774503159
3	9685	199.275353660496	0.562023695731
3	9689	199.303456116672	0.625354187175
3	9699	199.475339629425	0.622699058341
3	9703	199.542522336432	0.652320461177
3	9710	199.643022481161	0.553724788329
3	9715	199.706830266834	0.40787638323
3	9719	199.760709430331	0.241971343466
3	9726	199.848863166558	0.402597564874
3	9730	199.883351200001	0.313201786663
3	9734	199.90291821595	0.170564328003
3	9738	199.965452523104	0.169002576686
3	9743	200.005389993378	0.133486082545
3	9750	200.087115107652	0.199615691155
3	9755	200.263269243821	0.311192787254
3	9760	200.467073656115	0.416117364383
3	9766	200.730695478363	0.012312778558
3	9774	200.919147757572	0.13865928722
3	9785	200.973205153607	0.42939269941
3	9787	200.987421128292	0.246583828023
3	9791	201.062117286059	0.313475575171
3	9803	201.197750954812	0.173571236112
3	9811	201.381449753919	0.241699179639
3	9813	201.483758821082	0.164153626699
3	9824	201.898437518154	0.724315146037
3	9840	202.106744755331	0.261459369876
3	9842	202.166413826969	0.938944719483
3	9844	202.176856972128	0.833583494789
3	9846	202.193180247542	0.664960222141
3	9848	202.196325437872	0.601488156786
3	9853	202.390504368046	0.339933271768
3	9860	202.725062406155	0.270884232914
3	9874	203.178477996541	0.354580988291
3	9876	203.212959587769	0.373093679294
3	9878	203.242209939554	0.194411099209
3	9882	203.376708576599	0.090854034134
3	9886	203.655265688946	0.243806836696
3	9893	203.72320788451	0.043382473341
3	9900	203.804247287293	0.039761115402
3	9911	204.14496702377	0.13648797264
3	9926	204.32953556652	0.275085465022
3	9928	204.375606056741	0.248815865273
3	9935	204.581901112743	0.400909295894
3	9937	204.654184571988	0.18374927238
3	9939	204.678246697601	0.430209965966
3	9953	205.164781997769	0.193818503178
3	9955	205.304894411636	0.51310857394
3	9957	205.327438797402	0.461562532224
3	9964	205.433162339663	0.043702392866
3	9970	205.724981038367	0.100535188295
3	9972	205.758209972115	0.078805384642
3	9986	206.089651776017	0.114259440177
3	9988	206.283579514019	0.421752683607
3	9990	206.283900167556	0.297375833027
3	9996	206.506723545833	0.052335122175
3	10012	206.648571763596	0.030993400502
3	10021	206.917734217881	0.57402404831
3	10025	206.95305735868	0.440671654262
3	10029	206.96964010869	0.454722066469
3	10040	207.387742194281	0.511809842826
3	10044	207.442285804207	0.813703516987
3	10056	207.590672872053	0.628259836114
3	10060	207.635589090262	0.946295165018
3	10070	207.806113938403	0.39061698124
3	10075	207.895949092887	0.977449534316
3	10079	207.968150218175	0.291220522661
3	10086	208.044440636149	0.424731383131
3	10088	208.048621940943	0.559672562219
3	10103	208.381187813171	0.836777828901
3	10105	208.445197517812	0.548436600186
3	10107	208.467246245841	0.466761053378
3	10114	208.479505269681	0.384275309273
3	10116	208.516666739657	0.04257049139
3	10120	208.549279452617	0.483633264578
3	10129	208.785573404999	0.246491611988
3	10139	208.895330200196	0.133112756775
3	10146	208.942243666399	0.110127865497
3	10150	208.948477112566	0.343538900432
3	10155	209.096046976744	0.197003777694
3	10157	209.096679483583	0.149834127984
3	10164	209.697875761408	0.124822878826
3	10185	210.058742205077	0.320452905903
3	10187	210.067906790628	0.23238462108
3	10192	210.207424489574	0.370933598655
3	10194	210.329303430425	0.335053174214
3	10196	210.410074946606	0.358764368943
3	10203	211.090224535107	0.120878957309
3	10207	211.619471112547	0.036906561848
3	10214	211.903289533463	0.084653659882
3	10220	211.997311293074	0.092510960903
3	10222	212.021315511564	0.080451769045
3	10226	212.201545467594	0.03324358857
3	10233	212.372762577639	0.141257547084
3	10240	212.435204457852	0.043168163892
3	10247	212.573056310411	0.119156526645
3	10255	212.856319541556	0.089493862888
3	10260	212.86882024833	0.21405684142
3	10265	212.905574191273	0.110994977344
3	10269	212.994466930063	0.026205406391
3	10275	213.028036213845	0.021449175492
3	10285	213.19986806546	0.195202280787
3	10287	213.234538355843	0.060334677291
3	10291	213.286594671816	0.02699572203
3	10309	213.517569935296	0.15335371132
3	10314	213.643632161969	0.314491038442
3	10316	213.670802681206	0.234226622555
3	10326	214.069480601243	0.094357350815
3	10328	214.077398572387	0.596824964332
3	10332	214.239270368133	0.734238392493
3	10342	214.463127060169	0.184297808244
3	10344	214.565125943026	0.434890026859
3	10357	214.855377234028	0.288439838699
3	10379	215.270520196032	0.546418184037
3	10381	215.301184948273	0.555923392202
3	10387	215.313565945576	0.544949536395
3	10392	215.348364005592	0.323634165043
3	10394	215.350691639494	0.042590058162
3	10416	215.852671410517	0.800912109511
3	10423	216.193193743514	0.966253598757
3	10440	216.447719998173	1.17829766314
3	10444	216.485997000721	1.177887884913
3	10449	216.502681185125	0.75043043294
3	10464	216.610391072977	1.159907795299
3	10469	216.801373671768	1.279020000383
3	10471	216.909165117532	1.360012997547
3	10478	217.175528827044	1.222189217823
3	10484	217.414263013514	1.149865685874
3	10486	217.459895028078	1.136488550037
3	10491	217.482820961309	1.047016336523
3	10493	217.648896113795	1.177207187637
3	10495	217.855093334178	1.332127178159
3	10502	217.93898479697	1.374960328065
3	10510	218.102406039754	1.102416122567
3	10512	218.171695575737	0.904979728378
3	10514	218.206440517478	0.798334052566
3	10519	218.301945158741	0.425638650639
3	10528	218.411155876445	0.431846950064
3	10540	218.619325824095	0.643506845553
3	10542	218.728539469255	0.633053260528
3	10544	218.76059089078	0.452655418241
3	10554	218.826708734765	0.307154159206
3	10556	218.962849521892	0.568084397792
3	10558	218.965218382306	0.497366234103
3	10563	219.031188048436	0.217226267653
3	10570	219.216075682223	0.147884986976
3	10577	219.712385463739	0.439773079199
3	10584	219.755215312014	0.014110765521
3	10598	219.985836036817	0.176024940351
3	10600	220.147079023486	0.24251979173
3	10602	220.147550458932	0.168444668927
3	10609	220.409114412199	0.181532277857
3	10618	220.574489045695	0.119807480053
3	10625	220.711882863217	0.20803052699
3	10637	220.9082332005	0.056203353151
3	10641	220.926623716767	0.145457650001
3	10643	220.928099136812	0.25950384139
3	10660	221.162285385465	0.242498185704
3	10665	221.206426242091	0.219672040217
3	10667	221.262025154935	0.151485799753
3	10669	221.288139891979	0.167908728916
3	10680	221.768582078491	0.249838744009
3	10687	222.025801386325	0.506679437444
3	10699	222.417440790399	0.728976485484
3	10701	222.470877938706	0.629752214476
3	10712	222.658284790675	0.099322118884
3	10719	222.783747297802	0.515951262664
3	10721	222.813853034774	0.413026439351
3	10726	222.82855377901	0.256063931031
3	10735	223.006858592686	0.383631822646
3	10750	223.100657540365	0.420566939556
3	10761	223.246861213033	0.360308231231
3	10763	223.260643171438	0.33339940611
3	10774	223.355262343179	0.272087076784
3	10778	223.404567013055	0.365644782809
3	10782	223.524140276018	0.251686193734
3	10786	223.624683295382	0.343001968771
3	10800	223.740070387007	0.596112964307
3	10811	223.930254562541	0.822675810645
3	10813	223.937488869243	0.47744730127
3	10815	223.975398469389	0.610637169459
3	10820	223.989673268535	0.796744598327
3	10824	224.205698289403	0.914050379019
3	10828	224.268081086281	0.481475316403
3	10830	224.384312919332	0.567981284445
3	10832	224.406320232999	0.878697099225
3	10841	224.537493955988	0.701939250115
3	10843	224.631407883895	0.475480142875
3	10852	224.704533228116	0.251301697032
3	10854	224.717650592484	0.480830196432
3	10858	224.749984157578	0.32760858773
3	10866	224.780168700199	0.083750102117
3	10868	224.845218787911	0.212070667495
3	10877	224.957355597201	0.234617471838
3	10879	225.02760389873	0.178089592625
3	10881	225.061127773716	0.163929079835
3	10892	225.400269505613	0.255484576319
3	10902	225.817265860087	0.522590840939
3	10904	225.82091663115	0.498365642012
3	10906	225.90993365142	0.123544378782
3	10913	226.145470398366	0.189472672966
3	10917	226.285654171358	0.049753143982
3	10925	226.700509261134	0.241270770328
3	10932	226.843744243459	0.201555103845
3	10939	227.040672325336	0.508780297395
3	10941	227.045966209215	0.342192443746
3	10946	227.048170388021	0.154070556143
3	10953	227.177424171287	0.114942849385
3	10957	227.213937844028	0.015648551845
3	10963	227.309536125775	0.064773451184
3	10970	227.581832004684	0.303650675257
3	10978	227.819721110348	0.175060934076
3	10988	227.913951883127	0.332901279394
3	10990	227.973302002675	0.222497418922
3	10995	228.08377241966	0.197787980889
3	10997	228.264853448951	0.494092810473
3	11004	228.622701219313	0.090503924769
3	11011	228.806996576718	0.112609000698
3	11022	229.058136087168	0.154523376284
3	11035	229.402208437127	0.185850017198
3	11040	229.423435747781	0.491349299338
3	11065	229.784925780406	0.547370044636
3	11071	229.852629800225	0.929812681978
3	11092	230.26850859679	0.314693909758
3	11099	230.427308655368	0.155446322318
3	11103	230.467230689041	1.093660695468
3	11105	230.494655688583	1.067191460718
3	11107	230.572350244812	1.292612658106
3	11123	230.7773751549	1.331911621783
3	11132	230.888233022996	0.11860101866
3	11137	230.951833464849	1.363684727201
3	11139	230.958159471407	1.46427946522
3	11143	230.998182791978	1.370080736235
3	11155	231.087555772598	0.235185583369
3	11165	231.140082755718	0.123642940082
3	11167	231.154972325966	1.506203973247
3	11169	231.172885517358	1.649109979193
3	11171	231.239915951888	1.428933507783
3	11173	231.287596342749	1.461525669068
3	11175	231.329072562189	1.16135929736
3	11183	231.466650530292	1.020021245574
3	11190	231.655559395385	0.224210835014
3	11194	231.797351367404	1.194844428712
3	11196	231.807990398445	1.168352728998
3	11203	232.154696098004	1.484801657029
3	11207	232.16977455841	1.347432185016
3	11213	232.219022204422	1.24575955297
3	11215	232.233335397174	1.221005042005
3	11217	232.254973856663	1.141938347025
3	11223	232.339950027364	0.941631304014
3	11237	232.619580639225	1.164439818596
3	11239	232.660054810566	0.338878762358
3	11249	232.806538648736	1.262522394522
3	11251	232.833506092147	1.049342428899
3	11253	232.929966789555	0.830542369198
3	11263	233.160705325102	0.994823334943
3	11268	233.213969930123	1.006030772202
3	11272	233.311104747314	1.01469503548
3	11279	233.378030128913	0.817725004551
3	11306	233.646009124976	1.442053247262
3	11310	233.697099002484	1.195540298085
3	11314	233.778875535647	1.259574038482
3	11321	233.944528273493	1.239631789057
3	11326	234.035080417354	0.66998314706
3	11331	234.047654644507	1.039654048223
3	11333	234.055762830126	0.658252195483
3	11342	234.131081762692	1.105847356539
3	11347	234.187868077975	1.05415120914
3	11355	234.219866450248	1.072286424367
3	11360	234.247254891831	0.319150475252
3	11368	234.373476923658	1.141976232184
3	11388	234.585356367345	1.166430490211
3	11395	234.698569820904	1.176239700706
3	11397	234.729077570869	0.600292792348
3	11404	234.807527832294	0.299056269755
3	11406	234.87490424901	1.423227417249
3	11410	234.975441333483	1.50175468623
3	11417	235.061652593424	1.561132331374
3	11419	235.095666854474	1.498159744588
3	11421	235.296513174937	1.689907324814
3	11423	235.352190072598	1.698639120379
3	11425	235.401308555442	0.969309748559
3	11429	235.537751494489	1.76736664425
3	11431	235.556104581401	1.479221816613
3	11433	235.661733718719	1.274506163057
3	11442	235.877910303606	1.231861690647
3	11447	235.891980168008	1.007770511456
3	11449	235.98710567862	1.182220983526
3	11451	236.073782026833	1.063413930003
3	11453	236.111999132456	0.641145230988
3	11457	236.14410160726	0.466384374577
3	11478	236.518036500162	0.658705693969
3	11484	236.591832897526	0.458225334971
3	11489	236.60378551343	0.028623322937
3	11503	236.735690082175	0.471642785026
3	11508	236.754601660391	0.442839028341
3	11519	236.879808455887	0.2306247545
3	11528	237.018000431817	0.650845642146
3	11535	237.069473883915	0.689752048244
3	11540	237.080080971267	0.164136494429
3	11542	237.143356795129	0.662975886649
3	11564	237.889720517664	1.339121453491
3	11578	238.096649641676	1.445842373875
3	11580	238.113574472934	1.442277902717
3	11582	238.205532318827	0.257228361798
3	11584	238.209466704848	1.42701989131
3	11586	238.2702739974	0.315003605654
3	11588	238.332140783289	1.54252993357
3	11598	238.609069864276	1.804690915386
3	11608	238.748700864693	1.866994406813
3	11610	238.802652047783	1.735530302522
3	11612	238.872443845377	1.291694308491
3	11626	239.235575690029	2.032523844929
3	11630	239.382777841669	2.089499468433
3	11632	239.407802618826	1.566592206435
3	11634	239.430076087122	1.400111835067
3	11636	239.442115872006	0.858814588769
3	11640	239.641668340919	1.053721996832
3	11642	239.658797179934	1.257181146553
3	11657	240.009156830377	1.486257536808
3	11659	240.013922451984	1.332932904784
3	11670	240.250766085868	1.286479975596
3	11672	240.327370272841	1.154855082575
3	11674	240.343298885948	1.16106972165
3	11676	240.351563394242	0.979222082512
3	11678	240.409977572387	0.811846255679
3	11686	240.495022901639	0.466755805592
3	11690	240.59388679881	0.551490062528
3	11697	240.742859772127	1.074423272037
3	11702	240.838138326654	0.885514946656
3	11704	240.847389779412	1.103189923519
3	11706	240.981285556447	1.158865829706
3	11715	241.043108664462	1.196513557475
3	11720	241.088310961118	0.361840136786
3	11722	241.094625970937	0.065811253427
3	11724	241.131679826349	0.981077110448
3	11726	241.17996678208	0.150282392517
3	11733	241.300094829101	0.755145468723
3	11735	241.374655487928	0.128873635088
3	11748	241.78208157963	0.376174237755
3	11752	241.794568063508	0.218212728398
3	11756	241.828162344239	0.22976928573
3	11763	241.892313068743	0.043310805136
3	11768	242.011242663459	0.220307766277
3	11773	242.072364815533	0.579789714936
3	11780	242.155870342893	0.05060970365
3	11791	242.379855054744	0.555355962352
3	11804	242.665669148621	0.429095987073
3	11810	242.86044757466	0.538968844839
3	11820	242.950453397105	0.07451292835
3	11822	243.051656801048	0.678652703236
3	11824	243.241784883332	0.840744894523
3	11843	243.574489301823	0.847015922161
3	11851	243.660496833272	0.807193589092
3	11856	243.712112034582	0.465891925198
3	11858	243.768522499	0.482989357818
3	11860	243.777768114922	0.319006833519
3	11874	243.995367897705	0.699048556055
3	11876	244.034326527085	0.430266573522
3	11878	244.041586439954	0.432409986061
3	11883	244.1591284996	0.502641765052
3	11885	244.227586879048	0.38116922435
3	11889	244.335546388626	0.543237191914
3	11901	244.551680260284	0.6529471726
3	11905	244.582574023632	0.326292207401
3	11909	244.593130644574	0.087821226199
3	11914	244.654738431152	0.098520348778
3	11916	244.658696340026	0.11300524979
3	11921	244.785515636348	0.195870850149
3	11928	245.162386375953	0.019608192362
3	11947	245.515676052924	0.322777518362
3	11949	245.560847978579	0.139870547692
3	11951	245.595963673214	0.085197373954
3	11956	245.674778492593	0.163555527477
3	11961	245.746482847411	0.502472640825
3	11965	245.779106205907	0.3614642509
3	11970	245.811917047562	0.372210584982
3	11979	245.948138997995	0.193899891289
3	11984	246.125864480248	0.275538469604
3	11996	246.338197193647	0.434648253045
3	11998	246.344097007948	0.167626400869
3	12003	246.540520382947	0.20746214558
3	12010	246.715127029722	0.160731077726
3	12029	247.272535488859	0.246564426115
3	12031	247.380601495913	0.412978445958
3	12043	247.682741519213	0.014434684825
3	12045	247.726691808681	0.716590147224
3	12052	247.804890925347	0.589788585147
3	12059	247.885988020684	0.135368813233
3	12063	247.945368627818	0.043717152407
3	12065	247.962922699973	0.343466623564
3	12071	248.269827621825	0.013592894732
3	12078	248.364988676859	0.556563022873
3	12083	248.476279071641	0.263654385125
3	12087	248.624052878719	0.340320987335
3	12092	248.658549231005	0.051080208149
3	12099	248.934136537413	0.232935880971
3	12113	249.153724308348	0.06133958938
3	12123	249.26190807941	0.145974728316
3	12131	249.383315496148	0.138904086393
3	12135	249.39919284332	0.379308861778
3	12137	249.467705790331	0.300939819614
3	12146	249.538449078611	0.371885813969
3	12156	249.666534368755	0.273766659421
3	12161	249.85139183299	0.637164217207
3	12165	249.957149366736	0.469828183638
3	12167	249.959219302717	0.430112584486
3	12169	249.990907894698	0.339813710542
3	12192	250.325789584532	0.196885292486
3	12197	250.36310849145	0.181672387437
3	12202	250.390457928141	0.461751277754
3	12204	250.43901105493	0.154687893905
3	12206	250.441575819649	0.145552635267
3	12208	250.475617320244	0.4576012585
3	12210	250.519537757248	0.319510839953
3	12224	250.788846949567	0.134185158755
3	12229	250.846765937592	0.52769322605
3	12231	250.857184766206	0.657046829637
3	12235	250.935726614277	0.630334511692
3	12242	251.111410065554	0.341611992986
3	12251	251.299383905816	0.042549975031
3	12265	251.484780927639	0.70413072823
3	12273	251.637890445399	0.756672952818
3	12278	251.697726971502	0.343583053053
3	12290	251.846306474382	0.832721690255
3	12294	251.873809192109	0.707916151262
3	12306	252.008643771376	0.617875866833
3	12308	252.034186578906	0.63605653663
3	12318	252.166565360382	0.447612395593
3	12320	252.190975753067	0.419449071513
3	12325	252.216552428914	0.605344111838
3	12335	252.296071160366	0.683412510324
3	12337	252.316828296701	0.375605037964
3	12349	252.542956730672	0.502902396166
3	12353	252.63525481772	1.01734500912
3	12357	252.705267734635	0.851982780847
3	12359	252.75756258952	0.507427879723
3	12367	252.823627628722	0.866766416678
3	12375	253.027891059017	0.810142836744
3	12382	253.152076046046	0.492531623656
3	12386	253.202108977908	0.971645673545
3	12393	253.214660335104	0.980715852715
3	12401	253.270186196471	0.949402159837
3	12408	253.47190549675	1.148731568573
3	12415	253.635298645873	0.049921039408
3	12417	253.699102292842	1.096926605228
3	12419	253.75480789126	0.621476101818
3	12421	253.813561401133	0.631491282305
3	12423	253.814949176654	0.46571385992
3	12425	254.075621571049	0.867156854946
3	12429	254.379581940685	0.034663741252
3	12443	254.646933359515	0.211458183329
3	12454	254.787398202028	0.280835290438
3	12460	254.898370743889	0.31010504525
3	12471	255.480978057735	0.832687662855
3	12476	255.555986814144	0.869847761267
3	12483	255.618316655747	0.909391477525
3	12492	255.95377091894	1.112918926132
3	12504	256.190150882208	1.23579389917
3	12506	256.191698319581	1.342144516746
3	12512	256.263124716333	0.058845647089
3	12517	256.364761215499	0.136817668564
3	12521	256.39175384135	1.067926512906
3	12530	256.639982425796	1.180094638983
3	12539	256.805949089753	1.215868077405
3	12541	257.021690454465	0.256970582294
3	12551	257.218865332209	1.479323897668
3	12553	257.239504878031	1.338849554022
3	12560	257.362411699997	1.350369609446
3	12571	257.736401605875	1.6809856665
3	12573	257.749173985385	0.02398044194
3	12587	257.860953015213	0.042189655539
3	12591	257.901847633734	1.499944846799
3	12598	257.928713575875	1.549551174493
3	12606	257.963253471112	0.083000392224
3	12611	257.972334451612	1.45021865439
3	12628	258.233012502838	1.573738559298
3	12632	258.288355482373	1.166485714731
3	12641	258.41072521942	1.143220866554
3	12643	258.429811320578	0.928739893628
3	12645	258.44864216292	0.91181121448
3	12647	258.474935450838	0.674444140444
3	12652	258.506605986565	0.725440750045
3	12654	258.521852842118	0.611252335018
3	12660	258.609299745402	0.018502065054
3	12667	258.70496600861	0.726026224856
3	12669	258.742452390419	0.079258631219
3	12675	258.803199413297	0.032666139653
3	12682	258.84249953946	0.05511328368
3	12686	258.961693322265	0.893161640235
3	12694	259.00815806649	0.783220973908
3	12696	259.020296334424	0.742535515386
3	12701	259.149794839365	0.7559091303
3	12705	259.236978795067	0.011106366529
3	12712	259.413193723332	1.006233004707
3	12722	259.612891004206	0.791991970713
3	12732	259.741044001545	1.194199326397
3	12741	259.860572224016	0.223372651557
3	12743	259.989323023111	0.31088914752
3	12764	260.30797815421	1.372263313664
3	12769	260.481789786756	1.120519129009
[...]
3	247138	4897.462956765213	0.21348348993
3	247144	4897.611464617402	0.220979343433
3	247149	4897.75405545397	0.15498496905
3	247155	4897.829179650054	0.471239529429
3	247160	4897.846999367676	0.29186600538
3	247169	4898.078636616544	0.292796807755
3	247183	4898.210950615483	0.282549870929
3	247189	4898.41363546026	0.591165876653
3	247194	4898.516288682817	0.225679134616
3	247196	4898.521045146777	0.455354653516
3	247209	4898.706087594528	0.525088140071
3	247222	4898.791633121392	0.043129376151
3	247226	4898.85974664535	0.753499744991
3	247231	4898.907736518516	0.099647637694
3	247233	4898.987218480598	0.811477205836
3	247237	4899.054327688478	0.697091436982
3	247242	4899.141232881689	0.597159424828
3	247246	4899.324055602088	0.288004430908
3	247248	4899.335296401156	0.109842155575
3	247259	4899.869902130572	0.483810871858
3	247266	4900.13730564193	0.747684958425
3	247274	4900.175874820385	0.476318516509
3	247278	4900.323786629745	0.204574431499
3	247286	4900.407708627377	0.231426626042
3	247291	4900.486743429564	0.145832925832
3	247297	4900.652860014647	0.053723569698
3	247306	4900.836807063365	0.493004449976
3	247317	4901.041665625257	0.677378284554
3	247321	4901.150715389773	0.045674800058
3	247326	4901.239880788277	0.637047411692
3	247339	4901.508170581388	0.799645767017
3	247343	4901.551444572681	0.151491556091
3	247348	4901.596500399503	0.065079336888
3	247355	4901.627024252633	0.804275164864
3	247369	4901.829784588849	0.830500316115
3	247376	4901.911388609291	0.926528477114
3	247385	4902.049361736041	0.614251461691
3	247387	4902.070521506505	1.045262925099
3	247389	4902.073945220988	0.710207289952
3	247398	4902.212164129107	0.72928458546
3	247405	4902.340766722651	0.737163684006
3	247409	4902.485212600984	0.033788126792
3	247428	4902.761097181451	0.183264011167
3	247435	4902.966575872375	1.302210927506
3	247440	4903.003569106502	1.27770206807
3	247455	4903.23469042965	1.115164213651
3	247457	4903.271177574375	0.620883705604
3	247459	4903.361037285064	1.564213027843
3	247469	4903.510557750373	1.61984009555
3	247477	4903.536033147876	1.622933301113
3	247481	4903.620375968038	1.705266590312
3	247492	4903.703009471043	1.548497153508
3	247494	4903.707121998463	0.160916236863
3	247496	4903.759827601096	0.579521326099
3	247498	4903.904256768148	1.621257539368
3	247500	4903.949197373956	1.452708868599
3	247502	4904.008561993207	1.485793705756
3	247504	4904.068846589221	1.274907864128
3	247511	4904.11078546849	0.902699472976
3	247513	4904.136900291486	0.65392532861
3	247515	4904.15116705031	0.07493933919
3	247519	4904.209288002072	0.047474378357
3	247531	4904.4514319022	0.092531011155
3	247533	4904.510014033522	0.192510815634
3	247549	4904.857525982191	0.300308914789
3	247553	4904.992392833508	0.325446392321
3	247555	4905.008891491375	0.260742757625
3	247559	4905.04030514198	0.260699697958
3	247561	4905.04458746556	0.111193369353
3	247571	4905.385679934836	0.35954709027
3	247578	4905.484504828013	0.22849505369
3	247582	4905.643796526208	0.242116006269
3	247592	4905.942216973423	0.410890969052
3	247598	4906.053199470418	0.339070429531
3	247603	4906.153080365215	0.146607574475
3	247607	4906.175882984201	0.124920042573
3	247612	4906.411180299029	0.243771828781
3	247628	4906.705373718712	0.145695331124
3	247630	4906.777669605708	0.261650139918
3	247632	4906.777905473391	0.226210794966
3	247636	4906.849452705819	0.191061696466
3	247641	4906.896646268084	0.06915130095
3	247645	4906.964614901342	0.023133289461
3	247652	4907.278266678728	0.052341227961
3	247659	4907.565688633554	0.132496075118
3	247666	4907.689901773384	0.067110774442
3	247670	4908.187943475604	0.04370883995
3	247678	4908.718472352477	0.014076511015
3	247699	4909.057990836774	0.467374946743
3	247701	4909.091127406421	0.424930274699
3	247711	4909.183973678444	0.460302578704
3	247718	4909.28946606744	0.428717998413
3	247722	4909.48730084205	0.621694936631
3	247724	4909.522171563302	0.520061018153
3	247736	4909.906133072727	0.895897090832
3	247738	4909.917971552481	0.552995665076
3	247740	4909.919700951839	0.648488884903
3	247742	4909.939538252358	0.347155887056
3	247747	4909.988664511518	0.892244163637
3	247749	4910.015288947015	0.44470647749
3	247758	4910.069917633034	0.04998635099
3	247767	4910.198854206621	0.14958344773
3	247774	4910.351274427742	0.280997995185
3	247796	4910.597720728776	0.416114313904
3	247804	4910.764831533603	0.499209164751
3	247806	4910.781692695788	0.400470440647
3	247817	4910.931006570469	0.500187948357
3	247819	4911.011922044692	0.547729202724
3	247832	4911.221615638722	0.642895696363
3	247834	4911.222991133462	0.474488186753
3	247836	4911.242894612767	0.139823902767
3	247845	4911.459496445047	0.760835417897
3	247858	4911.703425708657	1.000207113944
3	247860	4911.74416101875	0.43355751647
3	247862	4911.749805878551	0.386229662938
3	247864	4911.766634645192	0.190995757398
3	247866	4911.826308091579	0.157355012676
3	247875	4911.94252243247	0.271233842435
3	247889	4912.29917403065	0.603870454701
3	247894	4912.344751283891	0.465491095828
3	247899	4912.366645840047	0.39624372996
3	247901	4912.367996552796	0.167284698952
3	247916	4912.80829365799	0.920060378109
3	247923	4912.914870821497	0.649977784889
3	247925	4912.923771078962	0.532375533774
3	247927	4912.937431803423	0.483514261189
3	247940	4913.070151422697	0.258697366397
3	247945	4913.114387227056	0.107619136985
3	247950	4913.185211051813	0.182585989597
3	247952	4913.230551432585	0.216587568651
3	247954	4913.28796144412	0.258195368135
3	247958	4913.374850134466	0.029239810349
3	247962	4913.693099991243	0.090131994855
3	247974	4913.862561889357	0.161302492509
3	247976	4913.88845556794	0.140733336426
3	247983	4913.969984259222	0.044171587355
3	247991	4914.106290354404	0.086970622671
3	248013	4914.343512749208	0.278090651625
3	248015	4914.368681401141	0.245211581315
3	248021	4914.444074075805	0.332347826925
3	248028	4914.617038981838	0.175768427014
3	248030	4914.638882071912	0.49238546862
3	248035	4914.86175400425	0.796099237847
3	248039	4914.881135927921	0.731823309207
3	248046	4915.088039137987	0.672302896672
3	248048	4915.10882068509	0.502979677582
3	248050	4915.114998698046	0.247878070688
3	248064	4915.546490850884	0.482735097596
3	248068	4915.573985642491	0.22277766172
3	248073	4915.693507412969	0.303644902418
3	248077	4915.700081588478	0.002224919414
3	248085	4915.80419229055	0.315241469289
3	248092	4915.951088026615	0.394532024991
3	248096	4915.959345915847	0.154932108862
3	248107	4916.20074309162	0.247100407158
3	248112	4916.427567408572	0.431740463943
3	248114	4916.500362512913	0.529131502072
3	248121	4916.661860392898	0.490909101031
3	248123	4916.731287887185	0.197879691786
3	248132	4916.940572889889	0.149108310962
3	248137	4917.135528229559	0.261078816959
3	248153	4917.295165261397	0.153466096507
3	248155	4917.306236720438	0.158909861728
3	248157	4917.333371756494	0.188152707477
3	248159	4917.372383656548	0.140701607337
3	248171	4917.524473582731	0.120623251916
3	248178	4917.613385005302	0.074622677981
3	248180	4917.644860669644	0.213806687043
3	248184	4917.696041843854	0.014147764812
3	248191	4918.419049428196	0.339471190043
3	248200	4918.806716436882	0.225491358684
3	248222	4919.063096227272	0.442027128068
3	248227	4919.103372042795	0.081118005162
3	248229	4919.141310319238	0.273278979795
3	248231	4919.17959581975	0.170596244935
3	248233	4919.314268879251	0.267117324655
3	248250	4919.950521104881	0.33520159665
3	248252	4919.992789610412	0.230361601538
3	248254	4920.09348974528	0.255240515335
3	248270	4920.549035090523	0.322308257049
3	248279	4920.785496443992	0.510904486454
3	248287	4920.913801201647	0.418069391124
3	248289	4920.968968730864	0.553933064884
3	248291	4921.011471258861	0.25455539417
3	248302	4921.316603737659	0.038867590321
3	248309	4921.503204178115	0.013801058039
3	248320	4921.630481554573	1.07763451718
3	248324	4921.642343613704	0.069003839391
3	248329	4921.740553028903	0.675925230539
3	248335	4921.804540649626	0.500188364205
3	248342	4921.827251735625	0.221756389848
3	248346	4921.910935140898	0.303200345539
3	248348	4922.097639755857	0.464694091362
3	248353	4922.279044319616	0.487436612557
3	248357	4922.337635228612	0.58959365394
3	248359	4922.361806266924	0.538401734528
3	248368	4922.680999295865	0.849671978343
3	248375	4922.815274893878	0.508457072297
3	248385	4923.077554006457	0.51169274246
3	248390	4923.161394864433	0.458688542623
3	248392	4923.226681746917	0.627804203984
3	248397	4923.245360380242	0.372788866754
3	248410	4923.489752047268	0.131272461522
3	248416	4923.62839004465	0.206017246758
3	248431	4924.033944857046	0.482573203672
3	248433	4924.038459952075	0.515604766177
3	248435	4924.126263334737	0.418236147358
3	248446	4924.449206328151	0.735647936377
3	248456	4924.585205226201	0.449275743213
3	248458	4924.609537067975	0.476072006578
3	248473	4925.032273669983	0.517548991669
3	248478	4925.210996169974	0.819668390796
3	248480	4925.252941192498	0.62169833723
3	248482	4925.455114929049	0.518703502531
3	248489	4925.842188923817	0.032066857199
3	248506	4925.993465771015	0.062031606126
3	248518	4926.169404876723	0.231742915578
3	248520	4926.195520313384	0.344437465257
3	248525	4926.312640749826	0.448227043396
3	248527	4926.327532920104	0.44708543759
3	248529	4926.327672812803	0.335499095841
3	248539	4926.551076292065	0.524459430348
3	248541	4926.579767873904	0.542642003865
3	248558	4926.720073841784	0.229018882752
3	248566	4926.854626451291	0.197946980962
3	248570	4926.92915144193	0.196982683253
3	248578	4927.058770815589	0.46356522794
3	248592	4927.369608129756	0.101914367171
3	248594	4927.38816292767	0.691918630913
3	248599	4927.454155979748	0.701484104719
3	248604	4927.473263937296	0.623387298277
3	248609	4927.519057536082	0.569161474625
3	248611	4927.522584684937	0.636722972581
3	248616	4927.527851606175	0.52436496416
3	248629	4927.702557259385	0.652238972683
3	248639	4927.872270454666	0.167649191604
3	248643	4928.069682716847	0.93937818048
3	248647	4928.116426321397	0.906204422529
3	248649	4928.13051236857	0.46004827224
3	248657	4928.285895345316	0.21940685653
3	248659	4928.298263482824	0.226134784376
3	248663	4928.315559239523	0.011861992576
3	248677	4928.852509415635	0.283681097454
3	248679	4928.924270714042	0.19228369858
3	248686	4929.156364931815	0.099205604277
3	248688	4929.158601407336	0.645532469796
3	248708	4929.512836135986	0.127243000937
3	248710	4929.516480548892	0.270494859332
3	248712	4929.551516993024	0.266055947509
3	248717	4929.618250510267	0.128719998958
3	248723	4929.929489729955	0.485705868858
3	248728	4930.055308838882	0.571659392108
3	248730	4930.092267050113	0.421786788587
3	248734	4930.211475731073	0.350838603061
3	248739	4930.360176706664	0.150247937796
3	248745	4930.583494698048	0.120950928904
3	248749	4930.646662717384	0.121696126319
3	248751	4930.688532244847	0.087990246173
3	248762	4931.182789024914	0.275823854315
3	248767	4931.298223051083	0.186759511312
3	248781	4931.660344479242	0.260443816437
3	248783	4931.732892940098	0.584007038348
3	248798	4931.927503003672	0.055601280405
3	248800	4931.948922336425	0.033434467964
3	248805	4932.061715485342	0.574800799115
3	248810	4932.100500070482	0.610277543174
3	248812	4932.183199666935	0.448333587812
3	248822	4932.519647250514	0.733199673144
3	248824	4932.560336050307	0.705918929812
3	248826	4932.614568884116	0.236478089223
3	248833	4933.073451572244	0.118017459805
3	248851	4933.864891701104	0.351554305322
3	248853	4934.062270894436	0.527451153447
3	248855	4934.088936426739	0.509743409106
3	248861	4934.28531209306	0.553061601246
3	248866	4934.427426944829	0.62997718381
3	248875	4934.59107487576	0.051169129682
3	248877	4934.611178886678	0.349456102013
3	248883	4934.732207489137	0.497067301701
3	248885	4934.737665494049	0.108638533623
3	248894	4934.89457759472	0.31425201579
3	248901	4935.300562658025	0.572061120057
3	248903	4935.350647010319	0.155191364603
3	248908	4935.396578306169	0.621326576582
3	248913	4935.548769181646	0.700234029529
3	248939	4936.353342719667	0.573625293
3	248941	4936.4095287426	0.838640438379
3	248953	4936.503647485788	0.515438708741
3	248957	4936.588358778884	0.931480716801
3	248967	4936.936703564543	1.102448460535
3	248976	4937.033449568326	0.573894111168
3	248981	4937.069905410257	0.961894422765
3	248983	4937.129510367796	0.634570659777
3	248990	4937.481692818859	0.942548535159
3	248992	4937.539471307636	0.88149892988
3	248994	4937.653432574608	0.694025142818
3	248996	4937.664938454222	0.670602596546
3	249008	4937.948626676281	0.136538694306
3	249010	4937.950356627594	0.115920422285
3	249012	4938.083741780257	0.771537151052
3	249020	4938.496326479966	0.185014575456
3	249035	4938.567645259538	0.218992133526
3	249040	4938.810681238576	0.412006896967
3	249042	4938.86769652131	0.328051238815
3	249044	4938.936173970658	0.396617564724
3	249051	4939.165142086108	0.090346662593
3	249058	4939.465708308328	0.157702257749
3	249069	4939.784969498463	0.106056586882
3	249071	4939.802486607673	0.111700125317
3	249076	4939.832827949272	0.049956193701
3	249088	4940.384288650419	0.209364735718
3	249092	4940.516923675946	0.334344511882
3	249102	4940.694633862635	0.231865266934
3	249106	4940.79228166312	0.259323430676
3	249110	4940.823653548552	0.005604624411
3	249116	4940.88559514998	0.04916620286
3	249124	4940.98511008892	0.213418925298
3	249126	4940.997062484395	0.166461068706
3	249135	4941.288211616983	0.056199658863
3	249145	4941.417766574243	0.161096405119
3	249147	4941.638254391728	0.317748410975
3	249151	4941.653643502485	0.001817515786
3	249158	4941.764310596736	0.054308652274
3	249162	4942.102630455326	0.095670166754
3	249168	4942.361038557216	0.00109860076
3	249172	4942.442060752755	0.038206117356
3	249179	4942.559089003378	0.259988479664
3	249181	4942.596733739359	0.108244431975
3	249200	4943.056462543388	0.107183219577
3	249202	4943.110527162193	0.131111237792
3	249204	4943.11184502621	0.060552737111
3	249219	4943.359797366172	0.526493655251
3	249226	4943.460153003293	0.575164556114
3	249228	4943.553313536429	0.648856244252
3	249232	4943.61191918609	0.684713505327
3	249234	4943.722199396389	0.535408250925
3	249241	4943.791048812532	0.59990886685
3	249249	4943.923723040986	0.50066520508
3	249261	4944.09480614834	0.524973954684
3	249268	4944.161534356431	0.410671885965
3	249272	4944.445514405377	0.459897625794
3	249274	4944.496808672447	0.360356505585
3	249276	4944.498817579125	0.407599168321
3	249278	4944.550239255581	0.133121739332
3	249290	4945.275751664254	0.550684578154
3	249292	4945.313925226191	0.09385263477
3	249301	4945.473848536054	0.143598366315
3	249306	4945.618019233699	0.16552505246
3	249317	4946.051770636765	0.202329664736
3	249319	4946.056702112279	0.20733158712
3	249324	4946.10472122602	0.099595892493
3	249328	4946.13325342947	0.000251717199
3	249334	4946.300979425074	0.008880311662
3	249339	4946.46740904918	0.245316935324
3	249346	4946.632994586248	0.10119702113
3	249350	4947.101550447594	0.131214576144
3	249354	4947.412975728876	0.022512404308
3	249360	4948.009323816882	0.021094181241
3	249372	4948.203597236213	0.223088860751
3	249374	4948.258298907238	0.159605491495
3	249376	4948.278133075587	0.185405193469
3	249382	4948.509540642513	0.169593350227
3	249386	4948.579146274653	0.09036794565
3	249388	4948.595093986204	0.046252438627
3	249394	4948.710711200871	0.048546896438
3	249399	4948.78257507414	0.091587048572
3	249403	4948.933862946835	0.01259206864
3	249412	4949.157402111909	0.139848704433
3	249417	4949.340553947345	0.212576330237
3	249431	4949.841888293194	0.248537549619
3	249433	4949.86122845417	0.244738253184
3	249440	4949.964544186566	0.34137970667
3	249448	4950.03576143472	0.27531215874
3	249452	4950.087441521467	0.724772148486
3	249456	4950.139842782083	0.625194422025
3	249461	4950.209958373249	0.147901944126
3	249463	4950.242073173263	0.305020388946
3	249465	4950.388917647616	0.292933650233
3	249474	4950.614247118944	0.164489260451
3	249476	4950.628171190711	0.051014358835
3	249483	4950.806856832941	0.032392326667
3	249492	4950.968735524718	0.144234918862
3	249497	4951.03952063051	0.178114540777
3	249508	4951.22855978306	0.04669902612
3	249515	4951.610349267914	0.439074015161
3	249519	4951.698205006282	0.477974645834
3	249526	4951.771364612503	0.189050871685
3	249530	4951.836128851894	0.165609101105
3	249532	4951.903700440151	0.165450348553
3	249537	4951.982293109222	0.155191626247
3	249548	4952.21742929419	0.228976623632
3	249550	4952.309824955933	0.192569728329
3	249565	4952.558103335575	0.201576458221
3	249567	4952.575059934083	0.052562314715
3	249571	4952.606504097778	0.473430675533
3	249580	4952.746137302188	0.141562520562
3	249585	4952.801592062274	0.186100597541
3	249592	4952.870548288678	0.188239998336
3	249599	4953.167929606825	0.362220756912
3	249604	4953.238045826272	0.106576540773
3	249617	4953.773309581467	0.233423542156
3	249630	4954.041141176049	0.421481143557
3	249632	4954.060457663168	0.349861920831
3	249634	4954.092107208381	0.360640628143
3	249636	4954.159614722624	0.356823095561
3	249645	4954.919196444012	0.120451381608
3	249647	4954.945427572519	0.200044760642
3	249654	4955.394094198669	0.264964363191
3	249670	4955.930977959443	0.173368340805
3	249675	4956.079665974103	0.219601596027
3	249677	4956.159657696511	0.321787767651
3	249684	4956.260598231644	0.018479943653
3	249686	4956.269006121867	0.388659935721
3	249695	4956.662731917513	0.359812746949
3	249704	4957.004797851305	0.371108972132
3	249712	4957.289785905021	0.477900152808
3	249722	4957.460133741894	0.619817554966
3	249724	4957.531398184558	0.143051023769
3	249726	4957.56433786166	0.42645666196
3	249733	4957.916841400109	0.076625647805
3	249737	4958.009476652005	0.060866181294
3	249743	4958.135722400776	0.060173097681
3	249747	4958.315813683331	0.02046298995
3	249754	4958.540152451096	0.516548855414
3	249759	4958.610452577715	0.091545317565
3	249768	4958.90123499676	0.044598300085
3	249770	4958.911404216125	0.044374432782
3	249777	4959.244397700408	0.160556439936
3	249786	4959.642618258703	0.226918194294
3	249793	4959.792995154304	0.095809256998
3	249795	4959.819424573037	0.311806702636
3	249802	4961.116867408349	0.271856157809
3	249806	4961.625043780454	0.367790302096
3	249810	4961.953826028038	0.103296476869
3	249814	4962.594694705715	0.026508779339
3	249823	4963.651304415793	0.410031332946
3	249828	4963.933700275293	0.33365220929
3	249835	4964.340347480942	0.105893182279
3	249842	4964.477067018623	0.016745051057
3	249849	4964.890673105444	0.142926941193
3	249851	4964.917124859649	0.114341111549
3	249855	4965.277898917679	0.056775973266
3	249859	4965.882550521848	0.100847804296
3	249863	4966.262458779096	0.159210707892
3	249867	4966.57267851894	0.17215315841
3	249871	4966.997617705085	0.219373061396
3	249877	4968.139446355489	0.720290315033
3	249879	4968.36617161615	0.920661315694
3	249883	4968.526640468273	0.06097035835
3	249887	4968.779629026529	0.118481214006
3	249891	4969.198195375111	0.055090760208
3	249895	4969.386177744208	0.023337843731
3	249899	4969.609934404622	0.066491604965
3	249905	4970.39393294753	0.061445056589
3	249907	4970.40617294423	0.03514102793
3	249911	4970.758337853472	0.271556624106
3	249915	4971.134789320776	0.108179736865
3	249919	4971.846074987066	0.011918885929
3	249923	4972.48002523442	0.074072607207
3	249927	4972.929126083417	0.03767970303
3	249931	4973.012942032474	0.061597233702
3	249935	4973.868499500967	0.002236540427
3	249939	4974.123675514223	0.109937079787
3	249945	4974.649953948299	0.334101210795
3	249947	4974.830972124854	0.379613626753
3	249951	4975.230190959154	0.102255665484
3	249955	4975.75853133406	0.024872258757
3	249959	4975.861042181645	0.058194394286
3	249965	4976.604793552906	0.205291582446
3	249967	4976.64972439862	0.180652082865
3	249971	4976.730066514594	0.006665365344
3	249975	4977.755051680297	0.152048276375
3	249979	4978.22033230439	0.021071224178
3	249983	4979.463862664474	0.11604500811
3	249987	4979.849425092969	0.097738042932
3	249991	4980.56160463222	0.090266233718
3	249997	4981.985198927854	0.31239358774
3	249999	4982.173018014201	0.401151010774
3	250003	4982.278088198908	0.005741279869

