version 2
run General-0-20200408-11:02:01-48818
attr configname General
attr datetime 20200408-11:02:01
attr experiment General
attr inifile omnetpp.ini
attr iterationvars ""
attr iterationvarsf ""
attr measurement ""
attr network PriorityQueues
attr processid 48818
attr repetition 0
attr replication #0
attr resultdir results
attr runnumber 0
attr seedset 0
param **.source.interArrivalTime exponential(1.428571429s)
param **.source1.interArrivalTime exponential(0.769230769s)
param **.server.serviceTime exponential(0.25s)
param **.source.numJobs 10000
param **.source.jobType 0
param **.source1.numJobs 10000
param **.source1.jobType 1

vector 0 PriorityQueues.passiveQueue queueLength:vector ETV
attr interpolationmode sample-hold
attr title "queue length, vector"
vector 1 PriorityQueues.passiveQueue1 queueLength:vector ETV
attr interpolationmode sample-hold
attr title "queue length, vector"
vector 2 PriorityQueues.sink lifeTime:vector ETV
attr interpolationmode none
attr title "lifetime of arrived jobs, vector"
attr unit s
0	0	0	0
0	7	1.136963578292	1
0	8	1.156101351645	0
0	25	2.455853766503	1
0	26	2.507091826314	0
0	91	8.910022285841	1
0	94	8.939201697848	2
0	95	9.040945375559	1
0	98	9.487817291419	0
0	103	9.595270465552	1
0	121	11.746390835679	2
0	137	12.618114654299	1
0	140	12.649583256659	0
0	163	14.260632604379	1
0	164	14.605183672662	0
0	187	16.518737410965	1
0	188	16.810142338886	0
0	259	22.505525638576	1
0	278	23.71485047111	0
0	292	24.075400592691	1
0	296	24.386243606996	0
0	313	25.461738976122	1
0	316	25.615503416391	2
0	317	25.686694372242	1
0	320	25.745269751936	0
0	331	27.377989072317	1
0	338	28.539729228226	0
0	349	28.890478665762	1
0	350	28.990376927443	0
0	370	29.538199329707	1
0	374	29.711969842458	0
0	379	30.083279106119	1
0	380	30.088628675776	0
0	388	30.395965672652	1
0	398	30.864378513728	0
0	409	31.947779074372	1
0	412	32.092114467714	2
0	413	32.18116588555	1
0	416	33.118423750446	0
0	487	39.117591104817	1
0	490	39.212301678391	2
0	493	39.561438032898	3
0	494	39.692792158894	2
0	497	39.901003037911	1
0	500	40.110027420904	0
0	517	41.245994500639	1
0	523	41.386923512707	2
0	527	41.431737745664	1
0	530	42.094051727833	0
0	577	44.733068892658	1
0	580	44.762086690946	2
0	581	44.822471568647	1
0	586	45.019589908144	2
0	587	45.26390683675	1
0	590	45.265083471873	0
0	649	50.02251042947	1
0	656	50.365443170999	0
0	757	61.688566808794	1
0	758	61.819663335768	0
0	769	62.201319974476	1
0	770	62.21934039823	0
0	811	64.065569518563	1
0	832	65.28568342699	2
0	833	65.328696803724	1
0	838	65.642942705637	2
0	844	65.860505027494	3
0	850	66.00667733447	4
0	851	66.038970689754	3
0	866	67.091973442781	2
0	869	67.240491817362	1
0	872	67.266894978269	0
0	901	72.149077118059	1
0	902	72.50537845941	0
0	958	79.014677002258	1
0	970	79.682209240187	2
0	976	79.756370029042	3
0	982	80.406244093225	4
0	985	80.43019804465	5
0	986	80.704388154709	4
0	989	80.769970482001	3
0	992	80.772916289981	2
0	995	81.134864810478	1
0	998	81.246428015608	0
0	1039	83.223444771077	1
0	1046	83.306993120269	0
0	1102	87.607555623524	1
0	1105	88.051795345043	2
0	1109	88.723390725873	1
0	1112	88.915160639516	0
0	1117	89.411552070511	1
0	1118	89.414453631388	0
0	1135	90.684950037907	1
0	1136	90.798351494145	0
0	1183	94.2956030755	1
0	1184	94.306681702773	0
0	1207	95.195143830372	1
0	1213	95.872881388194	2
0	1219	96.155692438756	3
0	1222	96.191390086356	4
0	1223	96.212617989349	3
0	1226	96.230022407117	2
0	1235	96.733313021172	1
0	1238	96.884458325756	0
0	1369	109.977704438195	1
0	1370	109.996717656555	0
0	1390	112.271217940958	1
0	1406	113.021916644326	0
0	1411	113.182915949221	1
0	1412	113.349659736366	0
0	1435	114.31704808378	1
0	1436	114.60839384602	0
0	1477	117.16567551503	1
0	1480	117.4549023204	2
0	1481	117.459095829719	1
0	1484	117.498214772315	0
0	1573	124.886398382712	1
0	1574	125.065517789088	0
0	1711	141.343651950319	1
0	1712	141.39455610475	0
0	1774	147.069294316143	1
0	1783	147.813692632202	2
0	1787	148.097461292433	1
0	1796	149.500048929312	0
0	1846	152.969322640868	1
0	1849	152.989389199792	2
0	1852	153.005808128666	3
0	1882	154.094984820728	4
0	1901	155.490833266327	3
0	1916	156.087521185889	2
0	1919	156.161496654201	1
0	1922	156.196738625305	0
0	1933	156.552030983095	1
0	1934	156.632443898415	0
0	1996	159.634205305499	1
0	2002	159.964806694106	2
0	2003	160.029349890044	1
0	2012	160.480034358543	0
0	2038	162.649261600926	1
0	2044	162.85390877439	2
0	2063	164.09383625216	1
0	2066	164.113855966146	0
0	2083	165.0117110625	1
0	2084	165.070259542104	0
0	2110	167.724443328883	1
0	2132	168.746311247241	0
0	2137	168.885726702354	1
0	2138	168.940021842117	0
0	2260	179.317326432467	1
0	2264	179.611036902476	0
0	2272	179.696030863162	1
0	2276	180.273537539467	0
0	2335	187.507823740041	1
0	2338	187.60034615834	2
0	2357	188.839399985483	1
0	2360	188.847867949294	0
0	2395	192.801540805615	1
0	2396	192.813495153159	0
0	2413	193.684197576105	1
0	2414	193.769169147771	0
0	2449	197.835511296858	1
0	2450	197.870152225174	0
0	2455	197.88355975533	1
0	2458	197.906029932158	2
0	2459	198.054882230159	1
0	2468	198.212509810582	0
0	2491	199.348770379464	1
0	2498	199.541722485444	0
0	2503	199.549449975174	1
0	2504	199.710561452987	0
0	2509	199.724757128537	1
0	2524	201.101318123649	2
0	2527	201.168082269005	3
0	2530	201.919554834602	4
0	2531	201.987252652972	3
0	2534	202.031721842436	2
0	2539	202.449785864477	3
0	2540	202.476955511159	2
0	2549	203.14368095478	1
0	2563	203.904382406066	2
0	2579	204.740701083401	1
0	2582	205.01225191119	0
0	2599	206.088580793452	1
0	2600	206.126138138933	0
0	2629	207.612471782097	1
0	2630	207.896469083727	0
0	2641	208.378041489955	1
0	2654	209.277537085921	0
0	2671	211.276426727292	1
0	2684	212.727928912805	0
0	2719	217.618436291135	1
0	2720	217.626611243533	0
0	2779	223.060634347552	1
0	2780	223.202918032455	0
0	2785	223.448571192928	1
0	2786	223.599757339878	0
0	2791	223.71794937051	1
0	2792	223.77501871721	0
0	2809	224.570163537733	1
0	2810	224.631852695305	0
0	2815	224.957977775606	1
0	2816	224.967078126453	0
0	2998	244.235097743151	1
0	3002	244.431659195057	0
0	3007	244.699978767808	1
0	3008	244.994782412575	0
0	3031	246.34298534725	1
0	3032	247.126321162094	0
0	3055	249.175574748491	1
0	3061	249.333454572256	2
0	3076	249.945513184998	3
0	3086	250.740162713525	2
0	3091	251.024387210694	3
0	3092	251.2985726763	2
0	3097	251.351983170273	3
0	3098	251.581186975879	2
0	3101	251.835925271148	1
0	3106	251.949256968943	2
0	3107	252.117865379541	1
0	3130	253.084789592235	2
0	3143	253.572661864051	1
0	3146	253.68923612066	0
0	3241	259.872683978411	1
0	3242	259.933213231311	0
0	3253	261.361033214316	1
0	3262	262.63035994659	2
0	3263	263.043531742211	1
0	3266	263.047785648143	0
0	3301	266.729012999467	1
0	3302	266.800446709302	0
0	3307	266.875158400953	1
0	3308	266.995917815078	0
0	3316	267.708672933067	1
0	3325	268.398748682222	2
0	3328	268.534869372081	3
0	3332	268.652969735273	2
0	3349	269.417801339689	3
0	3350	269.830663671252	2
0	3359	270.460439384125	1
0	3362	270.496251560071	0
0	3451	283.224508476972	1
0	3452	283.306972843394	0
0	3457	283.474380277184	1
0	3458	283.523911629129	0
0	3505	287.409412414247	1
0	3506	287.779523989776	0
0	3511	287.815440619409	1
0	3514	287.87318573036	2
0	3527	288.483156141904	1
0	3535	288.686665893276	2
0	3563	290.433649624875	1
0	3574	290.610419163191	2
0	3583	291.909805884828	3
0	3595	292.588676511868	4
0	3598	292.862902086166	5
0	3608	293.42732222796	4
0	3611	293.483221992544	3
0	3614	293.499545391455	2
0	3617	294.149463702791	1
0	3620	294.383108806878	0
0	3625	294.420395781578	1
0	3626	294.475603601816	0
0	3643	295.348125391563	1
0	3656	295.966477829131	0
0	3775	311.238501385778	1
0	3784	311.330906536013	2
0	3793	311.541809226407	3
0	3808	312.596290287507	4
0	3809	312.930590168061	3
0	3812	312.961788441126	2
0	3815	313.060092762874	1
0	3824	313.311099546445	0
0	3829	313.407558420778	1
0	3836	314.471368969365	0
0	3859	319.285138267684	1
0	3860	319.444636081497	0
0	3922	323.021459178901	1
0	3926	323.726209005151	0
0	4009	330.433718333879	1
0	4010	330.489952069589	0
0	4069	334.932855623554	1
0	4076	335.34348178037	0
0	4093	336.271225889507	1
0	4100	336.463001745889	0
0	4135	339.775330132464	1
0	4136	339.90608983601	0
0	4168	342.659135504654	1
0	4178	342.744188400712	0
0	4288	349.569974719672	1
0	4298	349.935611618386	0
0	4333	353.38109972909	1
0	4334	353.446903832621	0
0	4363	356.61024322631	1
0	4364	357.18122654367	0
0	4393	360.285700677348	1
0	4394	360.480705371534	0
0	4444	362.353150088708	1
0	4448	362.429339429141	0
0	4477	365.952330518491	1
0	4478	366.192256360574	0
0	4507	369.291470338104	1
0	4508	369.414071191673	0
0	4552	373.107220301403	1
0	4562	374.066957364014	0
0	4585	375.17037740071	1
0	4586	375.37851608104	0
0	4684	386.977941164081	1
0	4690	387.48915926756	2
0	4693	387.606677218269	3
0	4700	387.977783264858	2
0	4715	389.065891233875	1
0	4718	389.085478684148	0
0	4729	390.040865225311	1
0	4730	390.104617989588	0
0	4735	390.203523307225	1
0	4742	390.700816842856	0
0	4753	391.403285452421	1
0	4754	391.518841313485	0
0	4762	391.581893379393	1
0	4766	392.562868812298	0
0	4825	395.96554386378	1
0	4826	395.990214929778	0
0	4927	404.568155729864	1
0	4928	404.613369044402	0
0	4981	408.498115553073	1
0	4984	408.673709536198	2
0	4985	408.782825492836	1
0	4988	409.108211019949	0
0	5071	414.680644427675	1
0	5072	415.070372967796	0
0	5089	416.568630294213	1
0	5090	416.858106904606	0
0	5101	417.604235203535	1
0	5102	417.870753956056	0
0	5251	430.952726903783	1
0	5252	431.258153445708	0
0	5269	431.763487738072	1
0	5270	432.610908273041	0
0	5323	437.631878539142	1
0	5324	437.698344514823	0
0	5329	437.849844465121	1
0	5360	439.898653078094	0
0	5377	440.720571061269	1
0	5378	441.388392097107	0
0	5401	442.86536682534	1
0	5402	443.111923950164	0
0	5419	443.903638433529	1
0	5432	444.689335947301	0
0	5461	446.886053096041	1
0	5462	446.96604954689	0
0	5467	446.96970859367	1
0	5468	447.138018239761	0
0	5515	452.593431637949	1
0	5522	453.3157400054	0
0	5569	457.784149857113	1
0	5570	457.78457547337	0
0	5587	458.196049243735	1
0	5588	458.237160588121	0
0	5599	458.924816475502	1
0	5600	458.994349158223	0
0	5617	460.352771577533	1
0	5618	460.520080401303	0
0	5623	460.586513596905	1
0	5632	461.159193902285	2
0	5641	462.186760720128	3
0	5642	462.296220071622	2
0	5656	462.555253904936	3
0	5689	464.431377270279	4
0	5693	464.903013719321	3
0	5696	464.964381089856	2
0	5699	465.06039898278	1
0	5708	466.015367507514	0
0	5737	468.223158519834	1
0	5738	468.297046601737	0
0	5794	472.424274210316	1
0	5804	472.684427427049	0
0	5917	487.556374817757	1
0	5918	487.626579082412	0
0	5956	490.695996281841	1
0	5966	491.123156052271	0
0	6001	494.38073440339	1
0	6004	494.395183940001	2
0	6005	494.569300602596	1
0	6014	495.03919441039	0
0	6019	495.046743605521	1
0	6022	495.110988845452	2
0	6023	495.236487451829	1
0	6026	495.765558413839	0
0	6067	498.788713942013	1
0	6068	499.133009926348	0
0	6076	499.273053695959	1
0	6079	499.320041224265	2
0	6082	499.350287841211	3
0	6086	499.661775019274	2
0	6089	499.673755498547	1
0	6098	499.911648376966	0
0	6127	504.715673398503	1
0	6128	505.13001636442	0
0	6217	516.427529406376	1
0	6223	516.867954479742	2
0	6232	517.062463870332	3
0	6235	517.126770271535	4
0	6238	517.345253466952	5
0	6248	517.789094400766	4
0	6251	517.887769350571	3
0	6260	518.218981569379	2
0	6269	518.3522006323	1
0	6274	518.441601928762	2
0	6275	518.616178357129	1
0	6292	519.410915569742	2
0	6295	519.508773686603	3
0	6307	519.94983906951	4
0	6317	520.556411983902	3
0	6322	520.89436718997	4
0	6323	520.990329096278	3
0	6326	521.056572130207	2
0	6329	521.112557370318	1
0	6332	521.205551372424	0
0	6340	521.754664753157	1
0	6346	521.941611804325	2
0	6347	522.182441244227	1
0	6350	522.386581576995	0
0	6379	523.654403713704	1
0	6392	524.228744520407	0
0	6400	524.677041495895	1
0	6404	525.306512021794	0
0	6421	526.41833693314	1
0	6434	527.122272447576	0
0	6547	538.570081823895	1
0	6560	539.437367049819	0
0	6577	540.603369267666	1
0	6578	540.883365042919	0
0	6619	545.47895964439	1
0	6620	545.809603244356	0
0	6697	551.488926246608	1
0	6700	551.540059187219	2
0	6706	552.115269136955	3
0	6712	552.44491461845	4
0	6713	552.670309514223	3
0	6716	552.871374638678	2
0	6721	552.969164444153	3
0	6754	555.696665144894	4
0	6755	556.232342378385	3
0	6758	556.463500608327	2
0	6761	556.544043200032	1
0	6764	556.578290647921	0
0	6781	559.429619620649	1
0	6782	559.724305297206	0
0	6787	559.746453405505	1
0	6800	560.211827940727	0
0	6823	564.212694326913	1
0	6824	564.292802524443	0
0	6901	568.946679158657	1
0	6902	569.024066022137	0
0	7045	580.181386982734	1
0	7046	580.445443315476	0
0	7111	587.950710322653	1
0	7112	588.129513706226	0
0	7129	589.70377497686	1
0	7130	589.994774457466	0
0	7198	596.047430225825	1
0	7214	597.48735695088	0
0	7249	599.722132753856	1
0	7250	599.834298020535	0
0	7297	603.51325959954	1
0	7303	603.742707610967	2
0	7307	604.068645097368	1
0	7310	604.278299773386	0
0	7444	616.513932485581	1
0	7454	616.877009871094	0
0	7477	620.337530651768	1
0	7490	621.019077190936	0
0	7507	623.578069178785	1
0	7508	623.625886537838	0
0	7516	624.297461678249	1
0	7520	624.982105242625	0
0	7531	626.457039160275	1
0	7538	627.053365344699	0
0	7543	627.229172577685	1
0	7544	627.386070879118	0
0	7582	631.37663860556	1
0	7588	632.911942019936	2
0	7589	633.144280874713	1
0	7592	633.638666359456	0
0	7621	636.719654310191	1
0	7624	636.7716501529	2
0	7631	637.217799257747	1
0	7634	637.392141067823	0
0	7669	640.702639100818	1
0	7670	640.718649709238	0
0	7717	643.660913652462	1
0	7718	644.136414201235	0
0	7723	644.234296456911	1
0	7724	644.253158610328	0
0	7729	644.309157026654	1
0	7730	644.361003237544	0
0	7777	649.626796077571	1
0	7778	649.656527769647	0
0	7786	649.862945428924	1
0	7790	650.116643270761	0
0	7843	657.907016182738	1
0	7844	658.021737641599	0
0	7936	668.928990062294	1
0	7946	670.496318393531	0
0	7963	671.938120781088	1
0	7966	672.003256413351	2
0	7967	672.043023874885	1
0	7972	672.416518563491	2
0	7973	672.654301923903	1
0	7976	672.745279581194	0
0	7981	672.976003708154	1
0	7999	674.142313557692	2
0	8035	675.708355447115	3
0	8042	675.962321576322	2
0	8045	675.96918447574	1
0	8056	676.134763797971	2
0	8063	676.750960849931	1
0	8068	676.912594901953	2
0	8069	677.130851973934	1
0	8072	677.17711111763	0
0	8083	678.398088018941	1
0	8084	678.607444743489	0
0	8107	679.662208023192	1
0	8108	679.829217937172	0
0	8119	680.290614364558	1
0	8120	680.300462352448	0
0	8185	685.6825588229	1
0	8186	685.87225328662	0
0	8323	697.392338082051	1
0	8324	697.411092599097	0
0	8332	697.544612110944	1
0	8336	697.732179365263	0
0	8419	707.437161207616	1
0	8420	707.766555498384	0
0	8479	714.06961571195	1
0	8486	714.437968841033	0
0	8491	714.498994300803	1
0	8497	714.835488200807	2
0	8501	714.974765157699	1
0	8504	715.028446272883	0
0	8509	715.038225048974	1
0	8510	715.067048491312	0
0	8533	717.122407639429	1
0	8534	717.408767676458	0
0	8545	718.173093430106	1
0	8546	718.482606029062	0
0	8551	718.593745825109	1
0	8552	718.839676024249	0
0	8629	729.471619357561	1
0	8630	729.484797014773	0
0	8647	731.402747856445	1
0	8648	731.5702281528	0
0	8671	732.604424132256	1
0	8684	733.249764353268	0
0	8809	748.496992318267	1
0	8810	748.641339910892	0
0	8911	755.264220137765	1
0	8912	755.443964325286	0
0	8941	758.661422059357	1
0	8948	759.653816147082	0
0	8971	763.532431825647	1
0	8974	763.839866489867	2
0	8975	763.844538891563	1
0	8978	763.87430516442	0
0	8989	764.031780858127	1
0	8995	764.400974115442	2
0	9010	765.246722118815	3
0	9022	765.954861984839	4
0	9025	766.129011693655	5
0	9032	766.579754072976	4
0	9035	766.977306454273	3
0	9038	767.177486191605	2
0	9041	767.606179831858	1
0	9046	767.700808498035	2
0	9055	768.650998521239	3
0	9058	768.717539748517	4
0	9077	769.978036821023	3
0	9082	770.129112270051	4
0	9083	770.347563443707	3
0	9091	770.442007762246	4
0	9095	770.628763081048	3
0	9116	772.086379745935	2
0	9121	772.21068695561	3
0	9122	772.454884450042	2
0	9125	772.47877012033	1
0	9128	772.681717718366	0
0	9259	787.119087767564	1
0	9260	787.132354708342	0
0	9289	789.316934327231	1
0	9290	789.346527347617	0
0	9331	795.660229932922	1
0	9334	795.74825550542	2
0	9335	795.946001587877	1
0	9338	796.053801649966	0
0	9409	803.836407967258	1
0	9418	804.652380660896	2
0	9425	804.840497390467	1
0	9428	804.936043889975	0
0	9439	805.687858448299	1
0	9442	805.716270030248	2
0	9443	805.741818582106	1
0	9446	805.752252011708	0
0	9469	806.847387237599	1
0	9470	807.211671289065	0
0	9523	814.088300511709	1
0	9524	814.128144321447	0
0	9619	823.923148204892	1
0	9620	824.563247039161	0
0	9730	834.359431779859	1
0	9740	835.02809026751	0
0	9751	835.674236297009	1
0	9752	835.999514231551	0
0	9799	842.191384541098	1
0	9800	842.202034659367	0
0	9826	843.534120348458	1
0	9829	843.659911123038	2
0	9859	845.972137850205	3
0	9878	847.427204082938	2
0	9881	847.849880947145	1
0	9884	848.258487288765	0
0	9889	848.270120599626	1
0	9892	848.368574195026	2
0	9893	848.544581802969	1
0	9896	848.611868982903	0
0	9907	849.112174961793	1
0	9910	849.426528144921	2
0	9935	850.998797580648	1
0	9938	851.067502969624	0
0	9955	853.507842896677	1
0	9956	853.79226969063	0
0	9967	854.687396213572	1
0	9968	854.917749287531	0
0	9991	855.982820562315	1
0	9998	856.54990305721	0
0	10009	856.852902819502	1
0	10015	857.113148611279	2
0	10025	858.18772328903	1
0	10028	858.270354582455	0
0	10042	859.834779823083	1
0	10046	860.320885290754	0
0	10063	862.047044916305	1
0	10069	862.111703447778	2
0	10079	862.373749824767	1
0	10082	862.814514397077	0
0	10183	870.365478314455	1
0	10184	870.39272654546	0
0	10195	871.144235314204	1
0	10196	871.212654506232	0
0	10219	874.491179225165	1
0	10220	874.51517639624	0
0	10231	875.021675022401	1
0	10232	875.041464528871	0
0	10252	875.789924106414	1
0	10256	876.380660133538	0
0	10273	878.29462222941	1
0	10310	880.12933636514	0
0	10399	884.733569671222	1
0	10406	884.861787433313	0
0	10444	887.931803916183	1
0	10447	887.943162557826	2
0	10450	888.331409264572	3
0	10456	888.388341965725	4
0	10465	888.837402800095	5
0	10466	889.059924598095	4
0	10469	889.084125117516	3
0	10472	889.11250158034	2
0	10475	889.383728797769	1
0	10478	889.386004119929	0
0	10528	892.495994277858	1
0	10540	893.136611382843	2
0	10552	894.01446262402	3
0	10579	895.022628710425	4
0	10582	895.148299533994	5
0	10592	895.568125764161	4
0	10595	895.851966598707	3
0	10598	896.312965272238	2
0	10603	896.537382972037	3
0	10604	897.006475181905	2
0	10607	897.080594498772	1
0	10610	897.242543019343	0
0	10639	899.121388966513	1
0	10640	899.138561712559	0
0	10669	900.477616032055	1
0	10676	900.940124258732	0
0	10699	903.243744837308	1
0	10700	904.180532664913	0
0	10717	905.765244134112	1
0	10718	905.903994682818	0
0	10726	906.11886972703	1
0	10729	906.266090386302	2
0	10735	906.488612433565	3
0	10736	906.81071469129	2
0	10739	907.074668816783	1
0	10748	907.36074317738	0
0	10789	912.491594387728	1
0	10792	912.957022563099	2
0	10793	913.012346997194	1
0	10796	913.210285227763	0
0	10801	913.376879009056	1
0	10802	913.459008361373	0
0	10813	913.873446781159	1
0	10814	913.905350766341	0
0	10825	914.262447427158	1
0	10826	914.608609400723	0
0	10843	915.864249370295	1
0	10844	916.047128832599	0
0	10897	923.315541903872	1
0	10900	923.334692719621	2
0	10909	924.230202525087	3
0	10928	925.038359241611	2
0	10937	925.589154180256	1
0	10940	925.929737927655	0
0	10969	930.83689932472	1
0	10970	930.862579096297	0
0	10996	932.293742153543	1
0	11000	932.780328951307	0
0	11095	941.520788175458	1
0	11098	941.690594585427	2
0	11107	942.052364756484	3
0	11114	942.371798302153	2
0	11119	942.531171433004	3
0	11120	942.630094816271	2
0	11123	942.654568042699	1
0	11126	942.704567558308	0
0	11197	950.517182965622	1
0	11198	950.53288474682	0
0	11215	953.380108822564	1
0	11216	953.455172926344	0
0	11266	956.295807007964	1
0	11270	956.567571903947	0
0	11281	958.381606613088	1
0	11282	958.66500351185	0
0	11287	958.94721252846	1
0	11290	959.105421581366	2
0	11293	959.278676088785	3
0	11296	959.403285501196	4
0	11297	959.423623768247	3
0	11306	960.146664108764	2
0	11309	960.154985550253	1
0	11312	960.192955878945	0
0	11392	968.224534885164	1
0	11396	968.877443948915	0
0	11425	971.042882451984	1
0	11452	972.785129401683	2
0	11477	974.259376078702	1
0	11480	974.369362094859	0
0	11497	975.147175510066	1
0	11498	975.507606611723	0
0	11539	976.791108065348	1
0	11552	977.460758688873	0
0	11581	981.457365600915	1
0	11584	981.636006393487	2
0	11585	981.681243127815	1
0	11590	981.792727665384	2
0	11591	981.801419801518	1
0	11594	982.343264350852	0
0	11617	983.837849915833	1
0	11624	984.317025908767	0
0	11635	984.800194534674	1
0	11636	985.27537015128	0
0	11731	993.557363437184	1
0	11732	993.677161220595	0
0	11782	1001.421859175829	1
0	11786	1001.620570789181	0
0	11803	1002.271974913573	1
0	11804	1002.503959049695	0
0	11851	1007.000005407317	1
0	11854	1007.172746564369	2
0	11867	1007.965209612622	1
0	11870	1008.013706824006	0
0	11905	1012.788396317257	1
0	11906	1013.197702028215	0
0	11911	1013.386816858348	1
0	11912	1013.454702741122	0
0	11929	1014.059596530592	1
0	11930	1014.097854785657	0
0	11965	1017.3548751077	1
0	11978	1018.220153484481	0
0	11995	1019.593116679652	1
0	11996	1019.768176839845	0
0	12037	1022.492528953575	1
0	12038	1022.556481608225	0
0	12049	1022.75816016393	1
0	12050	1022.831827836864	0
0	12085	1023.730614914203	1
0	12086	1023.803232813461	0
0	12094	1024.1832387526	1
0	12104	1024.837869029279	0
0	12115	1025.793055462446	1
0	12118	1025.844276869918	2
0	12121	1026.077649197275	3
0	12124	1026.362301909562	4
0	12125	1026.568329712806	3
0	12130	1026.615212925443	4
0	12131	1026.671646514605	3
0	12136	1026.789223258183	4
0	12137	1026.887035717588	3
0	12142	1027.28002807124	4
0	12143	1027.36591808246	3
0	12152	1027.551681327198	2
0	12155	1027.576762581353	1
0	12158	1027.592734376672	0
0	12247	1037.567954226036	1
0	12254	1038.311868632084	0
0	12259	1038.321370170813	1
0	12260	1038.375715248614	0
0	12268	1038.711054168661	1
0	12272	1039.060411525586	0
0	12307	1042.777940162711	1
0	12308	1042.877402701716	0
0	12385	1048.934512815462	1
0	12386	1049.256818150845	0
0	12409	1050.627714756607	1
0	12410	1050.828698282831	0
0	12427	1052.412806926264	1
0	12428	1052.442515935462	0
0	12472	1053.975907943554	1
0	12482	1054.342100051886	0
0	12490	1054.633638159921	1
0	12494	1055.063632932313	0
0	12523	1058.065716416637	1
0	12524	1058.067601975752	0
0	12583	1062.677851485695	1
0	12596	1063.488464382477	0
0	12601	1063.593975657867	1
0	12602	1063.803860455377	0
0	12661	1071.053860695945	1
0	12668	1071.332977881468	0
0	12673	1071.344705458163	1
0	12674	1071.51601845692	0
0	12682	1071.634325222669	1
0	12686	1071.969071954847	0
0	12715	1074.043793550132	1
0	12722	1074.438337076556	0
0	12751	1076.555524514756	1
0	12752	1076.934367967437	0
0	12757	1077.132438509979	1
0	12758	1077.231562956269	0
0	12823	1083.96982278267	1
0	12835	1084.246552466801	2
0	12845	1085.104398271617	1
0	12848	1085.116131961598	0
0	12871	1086.671286865637	1
0	12872	1086.768667002362	0
0	12967	1094.79088314348	1
0	12968	1094.980926569056	0
0	12997	1098.526905789911	1
0	12998	1098.621459287834	0
0	13009	1099.308227359933	1
0	13010	1099.567455970331	0
0	13024	1100.856813366216	1
0	13030	1101.054989926611	2
0	13031	1101.136806818381	1
0	13039	1102.163395753856	2
0	13042	1102.183037893675	3
0	13046	1102.467820595534	2
0	13055	1103.334545946481	1
0	13058	1103.419783880634	0
0	13126	1110.404002634227	1
0	13130	1110.869607947244	0
0	13138	1111.316886951804	1
0	13142	1111.54414527083	0
0	13171	1116.764490162737	1
0	13172	1116.765284305624	0
0	13189	1117.701724090955	1
0	13192	1117.874326763318	2
0	13193	1118.050088886401	1
0	13196	1118.077005159232	0
0	13240	1121.867675226936	1
0	13246	1122.224892795672	2
0	13253	1122.82788480911	1
0	13258	1123.045811453085	2
0	13259	1123.066102424458	1
0	13262	1123.083669367835	0
0	13321	1127.688682072217	1
0	13322	1127.82939205926	0
0	13336	1128.516344630907	1
0	13339	1128.810096329234	2
0	13343	1129.164259229251	1
0	13346	1129.225591248708	0
0	13417	1136.928860519058	1
0	13423	1137.391806823086	2
0	13426	1137.580195167023	3
0	13430	1137.83279312823	2
0	13435	1138.203296332351	3
0	13442	1138.584911418792	2
0	13445	1138.732777386977	1
0	13448	1138.751585980295	0
0	13492	1141.742645915966	1
0	13507	1143.211189623949	2
0	13528	1144.655650016469	3
0	13532	1144.903736340818	2
0	13535	1144.921008701728	1
0	13540	1145.127196472119	2
0	13541	1145.38482790258	1
0	13544	1145.682776122412	0
0	13549	1145.820171777253	1
0	13555	1146.47191189663	2
0	13559	1146.569297980926	1
0	13562	1146.764960102283	0
0	13570	1147.548007982091	1
0	13574	1147.921018014626	0
0	13621	1151.51628631692	1
0	13622	1151.564141387995	0
0	13663	1154.72038046061	1
0	13664	1154.741491178667	0
0	13753	1163.732396606519	1
0	13760	1163.950242750963	0
0	13837	1170.975821677158	1
0	13838	1170.985216576236	0
0	13927	1179.666337819276	1
0	13928	1179.75831824265	0
0	13990	1186.311424663553	1
0	13993	1186.359840980739	2
0	14002	1186.661330551427	3
0	14008	1186.81670024459	4
0	14015	1188.424311264038	3
0	14018	1188.450165730417	2
0	14021	1188.493673437304	1
0	14024	1188.607646374734	0
0	14155	1200.639113814546	1
0	14158	1201.131742003308	2
0	14177	1202.869427279678	1
0	14188	1203.185922194845	2
0	14189	1203.246207045815	1
0	14197	1203.916017546072	2
0	14200	1204.293501408886	3
0	14204	1204.741945737063	2
0	14207	1204.901286573208	1
0	14210	1204.977541509509	0
0	14233	1206.317397634875	1
0	14234	1206.337702325545	0
0	14284	1210.669830481394	1
0	14288	1210.745771936932	0
0	14371	1217.554427336124	1
0	14372	1217.610791257564	0
0	14380	1217.852637447895	1
0	14389	1218.573340494515	2
0	14401	1219.641599537036	3
0	14402	1219.736648770684	2
0	14405	1219.739899231607	1
0	14408	1219.74792815036	0
0	14503	1226.836410779176	1
0	14510	1227.089695387895	0
0	14563	1232.32896943041	1
0	14566	1232.336863258624	2
0	14573	1232.544378007485	1
0	14576	1233.29575315755	0
0	14593	1234.428299666244	1
0	14594	1234.580696588878	0
0	14629	1237.951254679334	1
0	14636	1238.350768406002	0
0	14653	1240.42732802518	1
0	14654	1240.427509692867	0
0	14683	1242.886896185822	1
0	14684	1242.897526400898	0
0	14707	1244.142068653237	1
0	14714	1244.48093659841	0
0	14749	1247.56604242268	1
0	14750	1247.80741731719	0
0	14773	1249.57700728683	1
0	14774	1249.578259178072	0
0	14821	1255.551928107468	1
0	14830	1256.433773603464	2
0	14837	1256.737930782287	1
0	14840	1256.744161416169	0
0	14893	1260.125595080946	1
0	14900	1260.437840740216	0
0	14923	1262.381930041602	1
0	14924	1262.540663861573	0
0	14947	1264.44294312146	1
0	14948	1264.912107568008	0
0	15037	1271.98120993772	1
0	15038	1272.141885507538	0
0	15073	1274.535707367549	1
0	15074	1274.56544991056	0
0	15121	1278.86018468578	1
0	15122	1278.914631713922	0
0	15130	1279.162714637772	1
0	15134	1280.14102114784	0
0	15295	1295.604915659395	1
0	15296	1295.900885686535	0
0	15355	1304.051321740209	1
0	15356	1304.076835787117	0
0	15403	1307.170538588959	1
0	15418	1307.603043853813	2
0	15425	1307.684670378777	1
0	15428	1308.406433893181	0
0	15475	1312.068282970173	1
0	15490	1312.857605215517	2
0	15491	1313.088216549388	1
0	15494	1313.803689355872	0
0	15511	1315.209303154211	1
0	15512	1315.292560779144	0
0	15535	1316.372454858625	1
0	15536	1316.420651160852	0
0	15541	1316.528143075807	1
0	15542	1316.710616028415	0
0	15589	1318.997086093058	1
0	15596	1319.360249828671	0
0	15613	1320.789984568375	1
0	15614	1321.209720003126	0
0	15637	1322.910370093487	1
0	15638	1323.357883132777	0
0	15700	1329.596501474864	1
0	15710	1330.215016520588	0
0	15802	1342.518009168347	1
0	15814	1343.319392503433	2
0	15815	1343.441140998123	1
0	15818	1343.484287727255	0
0	15847	1344.73516743837	1
0	15848	1345.364149157383	0
0	15895	1349.164523288072	1
0	15902	1349.962242165792	0
0	15937	1354.805519355105	1
0	15946	1355.139400459301	2
0	15952	1355.557736732816	3
0	15956	1355.880997619774	2
0	15959	1356.001303840548	1
0	15962	1356.205217765839	0
0	16009	1358.509619300521	1
0	16010	1358.657564999477	0
0	16051	1363.389345680992	1
0	16052	1363.414498371695	0
0	16141	1372.958657527556	1
0	16148	1373.553660627902	0
0	16216	1378.317317609106	1
0	16219	1378.508213500396	2
0	16229	1378.919947219393	1
0	16232	1378.956577449563	0
0	16285	1384.421149511723	1
0	16286	1384.436218254323	0
0	16297	1384.822613171502	1
0	16298	1384.975819137836	0
0	16318	1386.176679657855	1
0	16336	1387.612396011561	2
0	16337	1387.634595839054	1
0	16342	1387.848019771067	2
0	16343	1387.989678088364	1
0	16346	1388.035202823404	0
0	16381	1390.665244948649	1
0	16384	1390.957088672564	2
0	16391	1391.590212437993	1
0	16394	1391.61078522986	0
0	16477	1396.54595711589	1
0	16478	1396.568374620226	0
0	16483	1397.029245988097	1
0	16486	1397.311876808998	2
0	16487	1398.184791132512	1
0	16501	1399.976961835471	2
0	16504	1400.167296851772	3
0	16522	1401.469393466998	4
0	16529	1402.101063128921	3
0	16532	1402.124953193707	2
0	16535	1402.239970814653	1
0	16538	1402.264368141455	0
0	16543	1402.81719546586	1
0	16568	1403.65412075123	0
0	16606	1406.169204078134	1
0	16618	1406.587066246623	2
0	16619	1406.824040153591	1
0	16622	1406.866370533952	0
0	16684	1410.261577957061	1
0	16690	1411.055046190296	2
0	16697	1411.833109409563	1
0	16700	1412.083373507055	0
0	16705	1412.108887233109	1
0	16712	1412.278469064994	0
0	16726	1413.141508079771	1
0	16730	1413.180289737962	0
0	16759	1415.976019493718	1
0	16760	1416.070332500404	0
0	16789	1418.190259026339	1
0	16796	1418.441731699749	0
0	16816	1419.052919739026	1
0	16826	1420.0428906147	0
0	16900	1426.664302289466	1
0	16910	1426.922094225746	0
0	16915	1427.04293003599	1
0	16916	1427.561761198762	0
0	16927	1429.478999295875	1
0	16928	1429.514589368026	0
0	16939	1429.860532406696	1
0	16940	1430.38421854105	0
0	17017	1436.8633162049	1
0	17020	1437.312685437284	2
0	17021	1437.42192042654	1
0	17024	1437.511721588004	0
0	17104	1448.392619230049	1
0	17108	1448.717018477412	0
0	17149	1455.23551677392	1
0	17150	1455.237191141459	0
0	17236	1462.735086039216	1
0	17278	1464.01356979514	2
0	17285	1464.124949637184	1
0	17300	1464.810806353919	0
0	17311	1465.65345142139	1
0	17312	1465.684566026923	0
0	17341	1470.643070099179	1
0	17342	1470.70790947309	0
0	17353	1471.120784690256	1
0	17354	1471.695009388044	0
0	17386	1475.097664669169	1
0	17390	1475.249184557359	0
0	17401	1475.925964110974	1
0	17402	1476.018757143205	0
0	17479	1482.547856078189	1
0	17482	1482.75320006027	2
0	17501	1484.460088236762	1
0	17504	1484.506649144888	0
0	17575	1491.679302928031	1
0	17576	1491.945717534138	0
0	17593	1492.71744590978	1
0	17594	1492.83076606023	0
0	17611	1495.95766388186	1
0	17612	1496.319172562364	0
0	17635	1498.46142557094	1
0	17636	1498.523317381444	0
0	17671	1501.161441081989	1
0	17674	1501.768438978777	2
0	17675	1501.949493245829	1
0	17678	1502.036355600182	0
0	17689	1502.880165228407	1
0	17690	1503.004040485299	0
0	17707	1504.649138407865	1
0	17708	1504.960743208061	0
0	17719	1505.745285909913	1
0	17722	1505.79486479749	2
0	17729	1506.412075157197	1
0	17750	1507.573200025569	0
0	17800	1511.647229981488	1
0	17809	1511.886752293255	2
0	17819	1512.775148233138	1
0	17822	1513.17825569981	0
0	17854	1514.59381119576	1
0	17864	1515.220562109381	0
0	17935	1520.346669672399	1
0	17936	1520.397423586212	0
0	17941	1520.469663411351	1
0	17942	1520.601707710931	0
0	17956	1521.390755953765	1
0	17959	1521.404662898488	2
0	17965	1521.883763926554	3
0	17966	1521.918125474609	2
0	17969	1521.959678004695	1
0	17972	1522.157165634747	0
0	18025	1528.097542004066	1
0	18026	1528.160238237376	0
0	18097	1531.941570432976	1
0	18098	1531.964435082444	0
0	18223	1544.544682632748	1
0	18232	1545.058730030993	2
0	18239	1545.457871248656	1
0	18242	1545.558261296556	0
0	18259	1546.862265645827	1
0	18268	1547.293473397689	2
0	18274	1547.754182070027	3
0	18284	1548.030676908173	2
0	18293	1548.559081885017	1
0	18296	1548.634026929944	0
0	18313	1549.356136488939	1
0	18314	1549.693632861188	0
0	18364	1554.066505545766	1
0	18368	1554.751460143315	0
0	18442	1560.999055926507	1
0	18446	1561.325753478742	0
0	18505	1567.258830162323	1
0	18508	1567.37301498732	2
0	18509	1567.406327447914	1
0	18512	1567.420564316694	0
0	18604	1577.150061291834	1
0	18619	1578.117261575254	2
0	18646	1579.808877885022	3
0	18655	1580.322803085213	4
0	18661	1580.777086028336	5
0	18680	1581.547285356843	4
0	18683	1581.875718872118	3
0	18686	1581.925587653798	2
0	18689	1582.048991559448	1
0	18692	1582.061189550491	0
0	18739	1586.319149087064	1
0	18740	1586.467536403851	0
0	18757	1587.51634395943	1
0	18769	1588.392063919546	2
0	18773	1588.615957544018	1
0	18778	1588.623858087715	2
0	18779	1588.660740522498	1
0	18782	1588.779941499651	0
0	18847	1595.286005102603	1
0	18850	1595.53877811386	2
0	18853	1595.743252296087	3
0	18854	1595.911210308553	2
0	18859	1596.052373146023	3
0	18860	1596.123650735307	2
0	18863	1596.315510953421	1
0	18884	1597.974510341776	0
0	18919	1600.33096726976	1
0	18928	1600.729765640157	2
0	18935	1601.266431486793	1
0	18943	1601.443853093976	2
0	18947	1601.666001310715	1
0	18950	1602.50326225487	0
0	18961	1602.831493339985	1
0	18962	1603.024410197414	0
0	18967	1603.049139090364	1
0	18970	1603.300288660161	2
0	18971	1603.32381455203	1
0	18974	1603.348236267175	0
0	18991	1603.810520753892	1
0	18992	1603.811588207827	0
0	19018	1607.581512522076	1
0	19034	1608.190200645703	0
0	19081	1610.324754236972	1
0	19082	1610.371688633728	0
0	19099	1610.785471016021	1
0	19112	1611.989743290297	0
0	19123	1612.588642899811	1
0	19126	1612.706575230526	2
0	19127	1612.710620476407	1
0	19130	1612.715205521662	0
0	19243	1622.732708006621	1
0	19244	1622.86183949429	0
0	19261	1623.970941552897	1
0	19292	1625.419462586154	0
0	19297	1625.516933151785	1
0	19298	1625.535386460836	0
0	19333	1627.101774387989	1
0	19336	1627.56625131285	2
0	19337	1627.574312379299	1
0	19340	1627.621591324838	0
0	19351	1628.841803121825	1
0	19352	1628.854505706477	0
0	19441	1636.300100371012	1
0	19444	1636.320004470209	2
0	19447	1636.632498429842	3
0	19448	1636.759428483457	2
0	19451	1636.816614136339	1
0	19454	1637.257510195788	0
0	19495	1641.5405303433	1
0	19496	1641.819543163956	0
0	19510	1643.535258921288	1
0	19514	1643.904863820425	0
0	19753	1668.408254643593	1
0	19760	1669.524622825069	0
0	19783	1671.431069283889	1
0	19784	1671.853762669916	0
0	19810	1673.557774709724	1
0	19820	1674.532137539705	0
0	19861	1678.121533568289	1
0	19862	1678.347502231107	0
0	19867	1678.37121054929	1
0	19874	1678.972851410798	0
0	19912	1683.383197124491	1
0	19916	1683.536098877849	0
0	19969	1689.552819335253	1
0	19970	1689.72994080534	0
0	19981	1690.530796184806	1
0	19982	1690.748795281883	0
0	20131	1706.895242967443	1
0	20132	1707.026420928725	0
0	20224	1719.2360400611	1
0	20228	1719.513768959706	0
0	20233	1719.775953140055	1
0	20234	1720.051872732695	0
0	20245	1720.442652114607	1
0	20246	1720.686302676082	0
0	20278	1723.001023053086	1
0	20288	1723.831740213129	0
0	20341	1728.339784852372	1
0	20342	1728.649292121534	0
0	20347	1728.774146826178	1
0	20348	1728.802641094983	0
0	20368	1730.326148038918	1
0	20372	1730.421259909704	0
0	20425	1735.997811890899	1
0	20426	1736.134904730615	0
0	20464	1737.94235928814	1
0	20470	1738.243085476847	2
0	20477	1738.613522459009	1
0	20480	1738.620362763487	0
0	20548	1744.749955000444	1
0	20557	1745.344409059043	2
0	20567	1746.177227842601	1
0	20570	1746.293346343316	0
0	20587	1747.051904867981	1
0	20588	1747.389895857509	0
0	20605	1748.701884351975	1
0	20606	1748.80364139647	0
0	20662	1752.339146050065	1
0	20686	1753.244517533949	2
0	20689	1753.442244850786	3
0	20692	1753.446208850803	4
0	20710	1754.444112894746	5
0	20726	1755.025119481487	4
0	20737	1755.580094772975	5
0	20746	1756.092056571294	6
0	20747	1756.558064164067	5
0	20756	1756.809257474873	4
0	20759	1757.154102922045	3
0	20762	1757.284840059258	2
0	20765	1757.450002657262	1
0	20776	1758.036391692698	2
0	20777	1758.192663734907	1
0	20780	1758.58163198361	0
0	20785	1758.702287101336	1
0	20786	1759.40275302692	0
0	20815	1761.628574111209	1
0	20816	1761.730516544164	0
0	20839	1762.601105805262	1
0	20840	1762.804408363398	0
0	20845	1762.916599467506	1
0	20846	1763.302249804747	0
0	20851	1763.315721811585	1
0	20852	1763.870241794977	0
0	20878	1765.744572011517	1
0	20881	1766.239768315259	2
0	20887	1766.442876130761	3
0	20888	1766.631695657373	2
0	20891	1766.693775475204	1
0	20894	1767.074273172073	0
0	20926	1771.287465034419	1
0	20953	1773.596733565685	2
0	20962	1773.890889050666	3
0	20978	1774.327598021961	2
0	20981	1774.508782908628	1
0	20984	1774.623532571281	0
0	21019	1779.298684188595	1
0	21020	1779.378185512897	0
0	21115	1790.007190582909	1
0	21116	1790.119575063698	0
0	21133	1791.200161334211	1
0	21134	1791.312201267347	0
0	21160	1792.950791256293	1
0	21164	1793.106763521413	0
0	21178	1793.499978895576	1
0	21182	1793.533335437577	0
0	21196	1793.804170674975	1
0	21200	1794.256457072779	0
0	21259	1798.495372941069	1
0	21260	1798.502346608936	0
0	21265	1798.713185163314	1
0	21266	1798.909559600235	0
0	21271	1798.920031102952	1
0	21272	1798.955814762871	0
0	21310	1801.184197221069	1
0	21314	1801.414041440244	0
0	21373	1806.341109550026	1
0	21374	1806.454633906471	0
0	21394	1808.517712130917	1
0	21404	1809.342658361197	0
0	21451	1813.578147222405	1
0	21452	1814.216575254803	0
0	21481	1816.03986674397	1
0	21484	1816.294573919905	2
0	21485	1816.397175751965	1
0	21488	1816.409447810663	0
0	21517	1818.003820496274	1
0	21520	1818.028813208848	2
0	21523	1818.138098250084	3
0	21526	1818.163013768053	4
0	21527	1818.240355907127	3
0	21530	1818.449550502748	2
0	21539	1819.111797252994	1
0	21542	1819.145300665843	0
0	21583	1821.584521866908	1
0	21584	1821.602489300192	0
0	21649	1830.267191281587	1
0	21650	1830.353488023851	0
0	21667	1831.601458966088	1
0	21697	1832.278896388909	2
0	21700	1832.306290198989	3
0	21716	1833.468364558022	2
0	21719	1833.522292626203	1
0	21728	1833.887058104684	0
0	21739	1834.540855109922	1
0	21740	1834.681593241009	0
0	21790	1838.937641843297	1
0	21793	1839.21925493989	2
0	21799	1839.455027445563	3
0	21806	1839.907233767992	2
0	21809	1840.188967718166	1
0	21812	1840.338079158739	0
0	21979	1855.172104351569	1
0	21980	1855.201586512676	0
0	22006	1856.581630375911	1
0	22018	1857.224579625162	2
0	22021	1857.34268488227	3
0	22028	1857.60469581658	2
0	22031	1857.610006792117	1
0	22034	1857.734397501898	0
0	22069	1862.659192072757	1
0	22070	1862.678030598775	0
0	22219	1876.183506974695	1
0	22220	1876.18880842571	0
0	22306	1882.031841213276	1
0	22316	1882.395670281119	0
0	22327	1882.825646306893	1
0	22334	1882.963194973143	0
0	22351	1883.459332260035	1
0	22352	1883.508395126343	0
0	22381	1885.337774293641	1
0	22387	1885.423216858213	2
0	22391	1885.581579444905	1
0	22396	1885.67790301388	2
0	22397	1885.717759002666	1
0	22400	1886.013400699841	0
0	22429	1887.9845565295	1
0	22436	1888.547626945372	0
0	22456	1889.611051110872	1
0	22460	1890.244178586389	0
0	22621	1911.423970791746	1
0	22622	1911.461196070995	0
0	22657	1913.358223368646	1
0	22658	1913.474953479501	0
0	22666	1913.819430117901	1
0	22669	1913.83565054676	2
0	22678	1914.154622318762	3
0	22682	1914.323175972981	2
0	22685	1915.503299489424	1
0	22690	1915.595968154967	2
0	22691	1915.738916206227	1
0	22694	1915.77142429784	0
0	22717	1917.262244812337	1
0	22718	1917.301887510823	0
0	22735	1919.313831394573	1
0	22742	1919.929607547918	0
0	22765	1922.196255132824	1
0	22772	1922.726812417125	0
0	22789	1924.191455374974	1
0	22792	1924.288357518604	2
0	22829	1927.237452650726	1
0	22832	1927.254631793232	0
0	22837	1927.297915318273	1
0	22844	1927.604942495067	0
0	22945	1936.700659237003	1
0	22957	1937.446967397211	2
0	22972	1938.224367594054	3
0	22975	1938.288331196097	4
0	22985	1939.160741234379	3
0	22988	1939.295362059399	2
0	22991	1939.535536186837	1
0	22994	1939.563422665972	0
0	22999	1939.844088250564	1
0	23000	1939.982085019129	0
0	23011	1941.011034627865	1
0	23012	1941.259001019921	0
0	23017	1942.257779986336	1
0	23018	1942.286551428785	0
0	23041	1944.632691351618	1
0	23042	1944.887589050446	0
0	23047	1944.921344716643	1
0	23054	1945.589001103672	0
0	23095	1947.925982878171	1
0	23096	1947.929577468611	0
0	23125	1949.60081632054	1
0	23126	1949.608886768977	0
0	23131	1949.678339204758	1
0	23134	1949.67844271337	2
0	23137	1949.71589049307	3
0	23138	1949.870674796043	2
0	23147	1950.203602936726	1
0	23156	1950.969970190164	0
0	23191	1952.748676032577	1
0	23192	1952.787727403115	0
0	23221	1955.049353665926	1
0	23222	1955.179636115134	0
0	23263	1958.516891345478	1
0	23270	1958.850981383485	0
0	23293	1960.924146389689	1
0	23294	1961.285348014236	0
0	23383	1967.65561861125	1
0	23402	1968.445892548545	0
0	23437	1970.297802949918	1
0	23438	1970.400137409355	0
0	23449	1970.840350048182	1
0	23452	1970.976132991328	2
0	23453	1971.183793934462	1
0	23456	1971.281975279602	0
0	23488	1973.314931034339	1
0	23497	1973.626327832701	2
0	23503	1973.825060647568	3
0	23504	1974.190661903344	2
0	23507	1974.458238258405	1
0	23510	1974.614065438188	0
0	23533	1975.7086648464	1
0	23534	1975.883856824876	0
0	23539	1975.944600950962	1
0	23540	1975.948982653791	0
0	23545	1975.966708172716	1
0	23552	1976.740726225511	0
0	23569	1978.962913820687	1
0	23581	1979.125825557445	2
0	23585	1979.215036679128	1
0	23594	1979.689680024792	0
0	23599	1980.163178460751	1
0	23600	1980.288671288393	0
0	23641	1982.707701832452	1
0	23660	1983.643684716758	0
0	23695	1985.489689076595	1
0	23696	1985.564860421974	0
0	23725	1987.691694364674	1
0	23726	1987.869943250071	0
0	23737	1988.81726598685	1
0	23746	1989.053715850096	2
0	23759	1989.933607691262	1
0	23762	1990.127680447987	0
0	23773	1990.625995099761	1
0	23774	1990.766934246967	0
0	23812	1993.320911773171	1
0	23816	1993.508615781024	0
0	23845	1998.29993373912	1
0	23852	1998.996726937346	0
0	23890	2003.408328861059	1
0	23894	2003.614207161376	0
0	23899	2003.714161821585	1
0	23905	2003.772993958978	2
0	23926	2004.795284859962	3
0	23953	2005.703665106736	4
0	23965	2006.444602136059	5
0	23977	2007.059213916432	6
0	23987	2007.687562419512	5
0	23990	2007.779727048804	4
0	23993	2007.814294019111	3
0	23996	2007.900848632329	2
0	23999	2007.909347563212	1
0	24002	2008.118323973513	0
0	24019	2009.590605607084	1
0	24022	2009.668726609883	2
0	24029	2010.141513922222	1
0	24032	2010.171816213286	0
0	24061	2012.444927556295	1
0	24062	2012.694523861391	0
0	24067	2012.776623271482	1
0	24068	2012.956255184939	0
0	24127	2020.280116513974	1
0	24128	2020.351373585057	0
0	24157	2023.447429586371	1
0	24158	2023.449892739308	0
0	24199	2027.289564407386	1
0	24205	2027.406332677955	2
0	24221	2027.930697207958	1
0	24224	2027.944872741241	0
0	24241	2028.810228131363	1
0	24242	2028.858035020225	0
0	24265	2029.551214272351	1
0	24266	2029.818609833381	0
0	24295	2032.772012452749	1
0	24296	2032.81817788154	0
0	24331	2035.661667566905	1
0	24332	2035.7538742953	0
0	24373	2040.460931403793	1
0	24379	2040.904127299119	2
0	24383	2040.959872697945	1
0	24386	2041.120898864163	0
0	24403	2042.402491239385	1
0	24439	2044.686788457969	2
0	24443	2045.166146287686	1
0	24446	2045.245494884341	0
0	24475	2046.248501861996	1
0	24476	2046.451655213435	0
0	24505	2047.496015313789	1
0	24514	2047.715670078634	2
0	24515	2047.918818176482	1
0	24520	2048.182485569998	2
0	24523	2048.468273167062	3
0	24530	2049.184955767536	2
0	24541	2049.969618927314	3
0	24542	2049.992103003758	2
0	24545	2050.157171226675	1
0	24548	2050.179024147104	0
0	24553	2050.776505100047	1
0	24554	2050.792048935164	0
0	24637	2055.290395314827	1
0	24638	2055.302967717181	0
0	24673	2057.880146166826	1
0	24686	2059.071350540062	0
0	24709	2061.243519484262	1
0	24710	2061.28002047447	0
0	24739	2063.112583143816	1
0	24740	2063.358199024083	0
0	24856	2075.331237336594	1
0	24860	2076.572177351904	0
0	24871	2076.814060550695	1
0	24872	2076.893257862093	0
0	24973	2084.487794479694	1
0	24980	2084.776584368893	0
0	25009	2086.204310517435	1
0	25016	2086.681327594881	0
0	25057	2090.656202806137	1
0	25058	2090.656537953457	0
0	25063	2090.959176321872	1
0	25066	2091.43676981468	2
0	25067	2091.492081048252	1
0	25070	2092.164952446391	0
0	25093	2094.563140424535	1
0	25096	2095.32512151245	2
0	25099	2095.363044716386	3
0	25100	2095.407037437155	2
0	25115	2095.937973785814	1
0	25118	2096.014151821388	0
0	25123	2096.116930536918	1
0	25147	2097.55123301311	2
0	25159	2097.77993356681	3
0	25160	2097.817106702443	2
0	25163	2097.972381485765	1
0	25166	2098.152995057654	0
0	25291	2108.429282769181	1
0	25292	2108.525897089707	0
0	25345	2114.993305874121	1
0	25346	2115.019087090145	0
0	25399	2118.86134595019	1
0	25400	2118.92417310645	0
0	25414	2120.142036553665	1
0	25418	2120.526929188684	0
0	25489	2127.809180233983	1
0	25510	2129.004639751998	2
0	25517	2129.582552150204	1
0	25546	2131.353995908656	2
0	25547	2131.538469039426	1
0	25568	2132.922331890873	0
0	25573	2132.923158960407	1
0	25574	2132.950744482069	0
0	25657	2141.119179109462	1
0	25669	2141.681414089067	2
0	25673	2141.82383811673	1
0	25676	2141.957875269285	0
0	25687	2142.317408303496	1
0	25688	2142.420266932187	0
0	25717	2143.258942737073	1
0	25738	2144.159610440645	2
0	25751	2145.481105764264	1
0	25754	2145.593975255112	0
0	25759	2145.668181608999	1
0	25760	2145.873441613564	0
0	25783	2147.36192474408	1
0	25784	2147.389785300243	0
0	25867	2152.272729092323	1
0	25876	2153.175875041323	2
0	25883	2154.586929615014	1
0	25886	2154.760604867021	0
0	25915	2156.342291933886	1
0	25916	2156.370959456059	0
0	25939	2157.46848884729	1
0	25940	2157.566898142126	0
0	25966	2160.001820512264	1
0	25970	2160.239160616488	0
0	26020	2165.758122961115	1
0	26024	2165.898729429982	0
0	26035	2167.09477436461	1
0	26036	2167.170891949071	0
0	26173	2179.085800057365	1
0	26174	2179.103143347312	0
0	26236	2183.229759902849	1
0	26239	2183.285779052624	2
0	26245	2183.423130939331	3
0	26246	2183.62745585894	2
0	26261	2184.724979334214	1
0	26269	2184.836441813328	2
0	26273	2185.560736511708	1
0	26276	2185.87361965881	0
0	26320	2188.604077553909	1
0	26323	2188.610422638888	2
0	26327	2188.711441771602	1
0	26330	2188.834930394778	0
0	26359	2191.580762939825	1
0	26360	2191.581057204471	0
0	26365	2191.644216119528	1
0	26374	2192.442308655003	2
0	26387	2192.857862913503	1
0	26390	2193.122059392435	0
0	26413	2194.551658094603	1
0	26414	2194.989605363777	0
0	26458	2198.325044538206	1
0	26462	2198.516252885467	0
0	26473	2199.634625978842	1
0	26474	2199.67493317173	0
0	26500	2200.44605037807	1
0	26504	2200.87930976438	0
0	26527	2201.51963855893	1
0	26534	2201.891248002191	0
0	26608	2207.9030991385	1
0	26612	2208.086329036931	0
0	26677	2213.396056224063	1
0	26690	2214.349223305805	0
0	26722	2217.758591755956	1
0	26728	2218.294597171347	2
0	26731	2218.333932902384	3
0	26750	2219.072082332313	2
0	26753	2219.15563459448	1
0	26756	2219.237741576759	0
0	26797	2221.597623892254	1
0	26798	2221.728234848662	0
0	26812	2223.291233437811	1
0	26818	2223.403942184974	2
0	26819	2223.613627370153	1
0	26822	2223.667954251315	0
0	26890	2230.418753953443	1
0	26894	2230.649441525655	0
0	26923	2232.388413643047	1
0	26924	2232.471792508421	0
0	26944	2234.384604233267	1
0	26947	2234.461002831006	2
0	26951	2234.765414960346	1
0	26954	2234.812026576264	0
0	26995	2239.21651020444	1
0	27007	2239.948500869013	2
0	27011	2240.244011733741	1
0	27022	2240.755852708597	2
0	27035	2241.463150159648	1
0	27044	2241.647894863126	0
0	27058	2243.039363439863	1
0	27064	2243.362956791528	2
0	27065	2243.557527554731	1
0	27068	2243.577600125375	0
0	27085	2244.531579545208	1
0	27091	2245.623017828328	2
0	27095	2245.728605817824	1
0	27100	2245.874616105182	2
0	27107	2246.273560419755	1
0	27110	2246.290090632413	0
0	27145	2251.131622828199	1
0	27152	2251.849129644443	0
0	27163	2252.479354144307	1
0	27164	2252.579691540084	0
0	27181	2253.62541078018	1
0	27182	2253.732942418239	0
0	27214	2254.68072702717	1
0	27218	2254.869601204202	0
0	27223	2255.078377186382	1
0	27238	2255.641141671498	2
0	27239	2255.79519391525	1
0	27244	2255.797819987205	2
0	27247	2255.799707080104	3
0	27254	2256.122244268047	2
0	27257	2256.124370548631	1
0	27260	2256.662139486868	0
0	27316	2261.941452333598	1
0	27320	2262.03879888747	0
0	27331	2262.989382346062	1
0	27338	2263.274256269882	0
0	27361	2265.182696984909	1
0	27368	2265.3752996225	0
0	27391	2266.940029843458	1
0	27392	2266.96007255098	0
0	27508	2276.696384632233	1
0	27529	2277.761914351596	2
0	27533	2278.183295290849	1
0	27536	2278.440526994046	0
0	27541	2278.591132676993	1
0	27542	2278.780135417762	0
0	27553	2279.277409640732	1
0	27554	2279.300748712709	0
0	27625	2285.71604943179	1
0	27637	2286.252459694529	2
0	27641	2286.675713755419	1
0	27644	2286.701729260698	0
0	27700	2291.817499905586	1
0	27710	2292.835492939649	0
0	27715	2292.919140165038	1
0	27716	2293.140737585912	0
0	27763	2298.487229060531	1
0	27769	2298.634419285512	2
0	27785	2299.873324712637	1
0	27788	2300.061353475544	0
0	27823	2301.814875468686	1
0	27824	2302.060815238102	0
0	27859	2305.261926045221	1
0	27860	2305.422700099699	0
0	27919	2310.418771595129	1
0	27922	2310.421751668884	2
0	27923	2310.460736905296	1
0	27932	2310.816376541442	0
0	28078	2321.500960390996	1
0	28081	2321.524194034802	2
0	28090	2322.629920349111	3
0	28093	2322.845614193094	4
0	28096	2323.743526674091	5
0	28112	2324.126763415552	4
0	28115	2324.297764386983	3
0	28120	2324.372325916485	4
0	28123	2324.391341983913	5
0	28132	2324.812079807941	6
0	28151	2325.862934516354	5
0	28154	2325.888758166237	4
0	28163	2326.435786187827	3
0	28166	2326.584836771936	2
0	28175	2327.044839730513	1
0	28190	2327.595648329395	0
0	28198	2328.411753160246	1
0	28202	2328.550715799723	0
0	28243	2332.471918713266	1
0	28250	2332.869080384557	0
0	28297	2337.287282164898	1
0	28298	2337.749544040474	0
0	28363	2344.847301224548	1
0	28364	2344.870909959882	0
0	28405	2347.270433677483	1
0	28406	2347.360362158038	0
0	28480	2351.437086693452	1
0	28510	2352.714280616525	2
0	28513	2352.975626691676	3
0	28514	2353.181428930315	2
0	28525	2353.413261691733	3
0	28532	2353.933675622763	2
0	28535	2354.187926194558	1
0	28540	2354.370812143266	2
0	28541	2354.477852176338	1
0	28552	2354.832052812417	2
0	28553	2354.922767585951	1
0	28556	2354.932094207397	0
0	28591	2358.2123611187	1
0	28592	2358.274791101909	0
0	28693	2363.409134169176	1
0	28696	2363.433459804122	2
0	28699	2363.727633217747	3
0	28700	2363.755163907539	2
0	28705	2364.128954073882	3
0	28706	2364.201430708614	2
0	28709	2364.446539068096	1
0	28712	2364.461028723989	0
0	28795	2372.644432478602	1
0	28796	2372.840205139143	0
0	28873	2379.744146952307	1
0	28874	2379.808208735025	0
0	28918	2382.781780214713	1
0	28933	2383.045173071779	2
0	28943	2383.355012753481	1
0	28946	2383.441631885026	0
0	28969	2386.045979152289	1
0	28970	2386.085475358568	0
0	29047	2390.740962628444	1
0	29048	2390.753398574914	0
0	29077	2393.413629706912	1
0	29078	2393.693014412379	0
0	29095	2394.691640267462	1
0	29096	2394.743049632099	0
0	29113	2395.835523579233	1
0	29126	2397.098937835948	0
0	29131	2397.233592693795	1
0	29132	2397.470145016097	0
0	29179	2402.328878620157	1
0	29180	2402.348760700439	0
0	29245	2406.470833914129	1
0	29264	2408.034690404923	0
0	29341	2418.767052410161	1
0	29342	2419.036420931968	0
0	29461	2430.860867611174	1
0	29468	2431.782131240111	0
0	29515	2436.797389099973	1
0	29516	2436.820332983001	0
0	29623	2446.261008850842	1
0	29624	2446.262862136574	0
0	29680	2450.156017993721	1
0	29683	2450.158065397588	2
0	29693	2450.969304233266	1
0	29696	2451.041581696026	0
0	29818	2460.203943396375	1
0	29824	2460.353162604309	2
0	29825	2460.379285015806	1
0	29834	2461.725628700856	0
0	29851	2462.461579582968	1
0	29858	2463.433847671961	0
0	29923	2470.126656470885	1
0	29929	2470.227835279815	2
0	29935	2470.469780907829	3
0	29936	2470.572341526951	2
0	29939	2470.583034970188	1
0	29942	2470.645471190804	0
0	29947	2470.778890664653	1
0	29950	2471.162374359423	2
0	29951	2471.198856479716	1
0	29956	2471.227840770881	2
0	29957	2471.240325916743	1
0	29960	2471.535485665571	0
0	29965	2471.582915788325	1
0	29966	2471.74517315532	0
0	29974	2471.934486824686	1
0	29989	2472.388960502444	2
0	29999	2472.973769318159	1
0	30002	2473.062090983299	0
0	30064	2476.937971796186	1
0	30074	2477.251285582626	0
0	30115	2480.450618394996	1
0	30116	2480.702997040895	0
0	30127	2481.949510887136	1
0	30133	2482.055062355042	2
0	30139	2482.331638368727	3
0	30140	2482.564129749871	2
0	30145	2482.652186655082	3
0	30146	2482.888567446852	2
0	30149	2482.893624893032	1
0	30152	2482.922228780692	0
0	30166	2484.046334563693	1
0	30175	2484.247854743683	2
0	30179	2484.48850483644	1
0	30182	2484.881866148278	0
0	30220	2487.293267428333	1
0	30224	2487.449946843148	0
0	30262	2489.225660362204	1
0	30272	2490.223729996816	0
0	30277	2490.381865724118	1
0	30278	2490.785001416128	0
0	30283	2490.793142479372	1
0	30284	2490.886375538361	0
0	30289	2490.899042254656	1
0	30290	2490.905123170639	0
0	30319	2492.975697100175	1
0	30320	2493.183938781901	0
0	30361	2496.591547230226	1
0	30362	2496.828363386297	0
0	30370	2497.11746852082	1
0	30374	2497.674714832209	0
0	30391	2499.352337847479	1
0	30392	2499.407402318327	0
0	30397	2499.576533627986	1
0	30404	2500.010639421433	0
0	30409	2500.016612450704	1
0	30410	2500.366628972892	0
0	30433	2502.749546123162	1
0	30448	2503.919839349363	2
0	30449	2503.983969774644	1
0	30452	2504.145427350563	0
0	30460	2504.67123728327	1
0	30476	2505.174161366054	0
0	30481	2505.448645875225	1
0	30482	2506.097075691891	0
0	30553	2519.968683544409	1
0	30556	2519.971723054868	2
0	30557	2520.043865618422	1
0	30560	2520.388233428744	0
0	30613	2525.412669678487	1
0	30614	2525.427706297692	0
0	30685	2532.260406092319	1
0	30686	2532.473461440425	0
0	30724	2533.903232247541	1
0	30728	2534.256051206059	0
0	30751	2535.145358906252	1
0	30758	2535.823723736872	0
0	30823	2542.005766619979	1
0	30824	2542.008808991958	0
0	30853	2545.263455014835	1
0	30856	2545.401877346058	2
0	30863	2546.021514926792	1
0	30866	2546.143849221662	0
0	30883	2548.985447853176	1
0	30886	2549.052926766489	2
0	30899	2549.709157245963	1
0	30902	2549.76846983546	0
0	30913	2553.8622419149	1
0	30914	2554.178279070316	0
0	30919	2554.444407781304	1
0	30928	2554.647426769157	2
0	30941	2555.918520206269	1
0	30944	2556.000242597317	0
0	31003	2559.081218911765	1
0	31004	2559.270968467794	0
0	31042	2563.155892559465	1
0	31046	2563.352881279521	0
0	31051	2563.576862681037	1
0	31052	2563.641358150918	0
0	31081	2565.661915809415	1
0	31082	2565.689932505344	0
0	31093	2566.149395073707	1
0	31094	2566.207998844286	0
0	31126	2568.808532319088	1
0	31130	2569.09802367811	0
0	31153	2571.306437369985	1
0	31160	2571.857368156145	0
0	31165	2572.185549555147	1
0	31166	2572.277389255547	0
0	31171	2572.61646660767	1
0	31172	2572.816700688149	0
0	31195	2575.643016827824	1
0	31196	2575.947021420946	0
0	31225	2577.059234824313	1
0	31226	2577.183255901554	0
0	31240	2577.904790035033	1
0	31244	2578.730986224273	0
0	31261	2580.249197989123	1
0	31262	2580.404544912987	0
0	31297	2582.979515977024	1
0	31300	2583.170934869231	2
0	31301	2583.175350670652	1
0	31304	2583.222232233019	0
0	31339	2586.508583706436	1
0	31346	2587.443658525523	0
0	31375	2589.989713988189	1
0	31376	2590.262352017904	0
0	31402	2593.300235487238	1
0	31406	2593.663033139142	0
0	31441	2597.355217061243	1
0	31442	2597.374707166342	0
0	31459	2599.359629469413	1
0	31460	2600.086736474545	0
0	31465	2600.24209530839	1
0	31466	2600.492204876766	0
0	31537	2603.940031001787	1
0	31538	2604.028507506406	0
0	31609	2611.494321006217	1
0	31610	2611.683703269851	0
0	31693	2623.120007737319	1
0	31694	2623.215158025162	0
0	31729	2626.414757303026	1
0	31730	2626.491430744807	0
0	31747	2627.143331531452	1
0	31756	2627.92251146925	2
0	31759	2628.112034974973	3
0	31760	2628.135856531643	2
0	31763	2628.220695474932	1
0	31766	2628.527653052392	0
0	31813	2632.187941188193	1
0	31820	2632.795961819006	0
0	31849	2634.952408960845	1
0	31850	2635.053142423977	0
0	31861	2635.492387590466	1
0	31862	2635.649941775369	0
0	31867	2635.721004859949	1
0	31868	2635.761077151712	0
0	31909	2640.172966423458	1
0	31916	2641.136791175589	0
0	31957	2644.55339402961	1
0	31958	2645.371454236059	0
0	31996	2649.739117286204	1
0	32006	2650.989805796258	0
0	32062	2654.494017368262	1
0	32065	2654.62668358022	2
0	32081	2655.522852771155	1
0	32084	2655.526016671599	0
0	32113	2657.82044299722	1
0	32120	2658.320843128102	0
0	32131	2659.167222628361	1
0	32152	2659.7781557585	2
0	32153	2660.285532999797	1
0	32162	2660.482760298293	0
0	32179	2661.051873092935	1
0	32188	2661.344674925333	2
0	32191	2661.392799551649	3
0	32197	2661.733308809524	4
0	32201	2662.191667874877	3
0	32204	2662.37122355718	2
0	32207	2662.404443489753	1
0	32212	2662.407876875574	2
0	32213	2662.504713015476	1
0	32216	2662.777818089904	0
0	32275	2668.271920550404	1
0	32282	2669.22225473502	0
0	32305	2670.012508414094	1
0	32306	2670.074190415538	0
0	32311	2670.097888999005	1
0	32318	2670.606425086437	0
0	32368	2675.688038686153	1
0	32372	2675.895107205757	0
0	32395	2676.453565356945	1
0	32396	2676.718615203166	0
0	32431	2680.388797635813	1
0	32444	2681.081857153198	0
0	32449	2681.243144628861	1
0	32450	2681.256437476125	0
0	32455	2681.261503554393	1
0	32456	2681.750752696731	0
0	32545	2689.670198225722	1
0	32546	2689.683832850545	0
0	32599	2694.456828014569	1
0	32606	2694.645640630493	0
0	32623	2696.796257597975	1
0	32626	2696.838032123774	2
0	32627	2696.89258769811	1
0	32636	2697.48068519597	0
0	32725	2706.731583214584	1
0	32737	2707.150631073026	2
0	32740	2707.211014892808	3
0	32762	2708.037932825721	2
0	32765	2708.135740401179	1
0	32774	2708.618769988635	0
0	32812	2713.693679881646	1
0	32815	2713.703053529219	2
0	32836	2714.607444343884	3
0	32842	2714.945558894257	4
0	32848	2715.410184573309	5
0	32852	2715.739182193115	4
0	32855	2716.29098529979	3
0	32858	2716.291667697047	2
0	32879	2717.603212078747	1
0	32890	2718.289925379489	2
0	32891	2718.302697573992	1
0	32900	2718.633109160505	0
0	32905	2718.791235677217	1
0	32906	2719.224595667565	0
0	32923	2721.213873197549	1
0	32924	2721.378890292229	0
0	32938	2721.886662702677	1
0	32944	2722.709678871755	2
0	32947	2722.813083020835	3
0	32948	2722.830862238332	2
0	32957	2723.136577632784	1
0	32965	2723.6393608093	2
0	32981	2724.75122025286	1
0	32984	2724.929424565851	0
0	33079	2729.955560018969	1
0	33080	2730.229169500587	0
0	33136	2735.034043744899	1
0	33140	2736.082710602841	0
0	33187	2740.227703108325	1
0	33188	2740.256289790254	0
0	33367	2758.750395505788	1
0	33368	2758.764197402531	0
0	33379	2759.404378833611	1
0	33386	2760.223866221859	0
0	33451	2766.823269064036	1
0	33457	2767.251992789842	2
0	33461	2767.707470309687	1
0	33464	2768.074420908689	0
0	33562	2775.842124642025	1
0	33566	2776.187472514346	0
0	33613	2779.646155328763	1
0	33614	2779.74968366508	0
0	33637	2781.947147689776	1
0	33638	2782.520641119818	0
0	33646	2783.229262337288	1
0	33652	2783.490541144229	2
0	33659	2784.319491767898	1
0	33679	2785.039539438337	2
0	33718	2787.902407718023	3
0	33734	2788.694060142542	2
0	33737	2788.794123336522	1
0	33746	2789.324207456075	0
0	33763	2790.536968958292	1
0	33764	2790.763880639309	0
0	33814	2795.135376827932	1
0	33818	2795.237475443948	0
0	33835	2796.103857357892	1
0	33836	2796.125536153715	0
0	33844	2796.225760938269	1
0	33854	2797.108731973247	0
0	33874	2799.171122185281	1
0	33886	2799.818377106625	2
0	33889	2800.024758349358	3
0	33892	2800.373285205032	4
0	33893	2800.410361205283	3
0	33896	2800.435314010003	2
0	33899	2800.801481390433	1
0	33902	2800.815460848962	0
0	33955	2807.571878450298	1
0	33956	2808.118128373648	0
0	33994	2812.524358987959	1
0	33998	2813.24740214147	0
0	34021	2816.896602455253	1
0	34024	2816.993213281905	2
0	34036	2817.587710739314	3
0	34042	2817.7988972166	4
0	34043	2817.957468182944	3
0	34046	2818.001887566008	2
0	34063	2818.923382427491	3
0	34064	2818.961837733564	2
0	34067	2819.083414087597	1
0	34070	2819.262888554432	0
0	34096	2820.80325913185	1
0	34106	2821.23244250228	0
0	34147	2825.096193496522	1
0	34148	2825.352744163928	0
0	34162	2827.043176698778	1
0	34165	2827.058699808375	2
0	34175	2827.372978385487	1
0	34178	2827.644169902754	0
0	34249	2831.472611375075	1
0	34252	2831.787287373396	2
0	34253	2831.888876929161	1
0	34256	2831.935335740101	0
0	34297	2835.155077856607	1
0	34298	2835.185712536544	0
0	34309	2835.80040627209	1
0	34310	2836.040921880795	0
0	34339	2840.85460191253	1
0	34340	2840.867067436064	0
0	34375	2842.407517894389	1
0	34388	2843.35235777015	0
0	34411	2844.714519015896	1
0	34412	2844.893945524505	0
0	34429	2845.90307015112	1
0	34430	2846.05583843907	0
0	34501	2855.052542709	1
0	34502	2855.118514931605	0
0	34567	2862.571316882039	1
0	34568	2862.603265506525	0
0	34585	2865.309115807766	1
0	34586	2865.533893118574	0
0	34669	2871.99835259118	1
0	34672	2872.252666362874	2
0	34673	2872.29952985657	1
0	34676	2872.420566338428	0
0	34711	2876.388006616549	1
0	34712	2876.490517635726	0
0	34759	2880.627325932123	1
0	34760	2880.835711161202	0
0	34777	2883.25815450309	1
0	34798	2883.893456007751	2
0	34799	2884.197699483222	1
0	34814	2885.092093434597	0
0	34819	2885.387053852792	1
0	34820	2885.755903891117	0
0	34921	2893.549447363765	1
0	34922	2893.616287615986	0
0	35008	2899.125777474917	1
0	35012	2899.444007069305	0
0	35017	2899.971053966117	1
0	35018	2900.106020345432	0
0	35029	2900.438186819373	1
0	35032	2900.493537534895	2
0	35035	2900.538045405031	3
0	35038	2900.952537401602	4
0	35051	2901.849445129279	3
0	35054	2901.964342069025	2
0	35057	2902.166291678372	1
0	35066	2902.785522134328	0
0	35083	2903.517768943048	1
0	35086	2903.519726583706	2
0	35092	2903.534654967789	3
0	35110	2904.764118624108	4
0	35117	2905.481685942002	3
0	35120	2905.512200231661	2
0	35123	2905.671633485285	1
0	35126	2905.738101663379	0
0	35185	2910.610601797656	1
0	35186	2910.719819282724	0
0	35239	2915.423036306547	1
0	35245	2915.570062366192	2
0	35266	2916.906267303467	3
0	35269	2917.108929356272	4
0	35279	2918.044003223357	3
0	35288	2918.296099138615	2
0	35291	2918.406984597746	1
0	35300	2918.749909979846	0
0	35329	2922.439327196621	1
0	35330	2922.449244221558	0
0	35335	2922.471695154294	1
0	35354	2923.792969025705	0
0	35365	2924.124393759456	1
0	35368	2924.204099976417	2
0	35369	2924.362789856811	1
0	35372	2924.401616415761	0
0	35377	2924.516648081853	1
0	35378	2924.662659261877	0
0	35419	2926.708636571358	1
0	35420	2927.216522841468	0
0	35455	2930.044880442252	1
0	35456	2930.307004543821	0
0	35461	2930.396250440417	1
0	35462	2930.442130031924	0
0	35623	2946.214938655292	1
0	35624	2946.222660019889	0
0	35638	2947.260712053795	1
0	35642	2947.410527009868	0
0	35671	2949.406679961879	1
0	35672	2949.458609536422	0
0	35698	2951.166285559336	1
0	35702	2952.027499360464	0
0	35749	2954.052355026639	1
0	35750	2954.232071094462	0
0	35767	2955.3188025429	1
0	35768	2955.51188443468	0
0	35827	2959.215837132942	1
0	35834	2959.843488813679	0
0	35881	2965.080998134453	1
0	35882	2965.146576232619	0
0	35899	2966.840957543306	1
0	35900	2967.361516748145	0
0	35917	2968.715882792128	1
0	35918	2968.806270083506	0
0	35929	2969.188105888002	1
0	35930	2969.218976268619	0
0	35995	2972.771749515684	1
0	35996	2972.821476567436	0
0	36013	2973.442711417338	1
0	36014	2973.474679820427	0
0	36043	2974.755087140429	1
0	36067	2976.892417414958	2
0	36071	2977.254645651016	1
0	36074	2977.746862391802	0
0	36115	2981.718546516815	1
0	36116	2981.916869522172	0
0	36133	2983.051412400075	1
0	36140	2984.196250064268	0
0	36163	2985.884395546741	1
0	36164	2985.889606330778	0
0	36193	2987.818287223682	1
0	36200	2988.23344267876	0
0	36205	2988.240224586362	1
0	36220	2989.069497085609	2
0	36221	2989.622016124823	1
0	36230	2990.251103949075	0
0	36250	2991.874145750846	1
0	36260	2992.707537728343	0
0	36289	2994.557146308296	1
0	36296	2994.72810533056	0
0	36301	2994.743180876163	1
0	36302	2994.805789810826	0
0	36349	3002.523562816478	1
0	36352	3002.826564640397	2
0	36355	3002.831648925183	3
0	36356	3002.96347727958	2
0	36389	3004.515244545087	1
0	36398	3006.627783263906	0
0	36427	3008.064403776272	1
0	36428	3008.217458262249	0
0	36496	3012.329075641687	1
0	36506	3012.779906494138	0
0	36517	3013.733413353829	1
0	36518	3013.789409320693	0
0	36679	3027.668680763113	1
0	36680	3027.799203036827	0
0	36697	3030.170177476388	1
0	36698	3030.456712058388	0
0	36742	3032.290668713429	1
0	36752	3032.924048665356	0
0	36757	3033.06578900063	1
0	36758	3033.070705869602	0
0	36781	3036.038890063768	1
0	36784	3036.124948662564	2
0	36787	3036.132891264315	3
0	36793	3036.365943898757	4
0	36796	3036.493490898042	5
0	36800	3036.800615633144	4
0	36803	3036.928820776989	3
0	36806	3037.211066869176	2
0	36809	3037.46761443509	1
0	36812	3037.708710413091	0
0	36817	3037.739227249099	1
0	36836	3038.279333246754	0
0	36916	3046.67548636065	1
0	36926	3047.111000764407	0
0	36967	3049.366623673764	1
0	36970	3049.459895982577	2
0	36983	3050.277512245196	1
0	36991	3050.456924375879	2
0	36995	3050.728298478159	1
0	36998	3050.7668748392	0
0	37024	3053.583423290551	1
0	37030	3053.809913997372	2
0	37031	3053.960683336696	1
0	37036	3054.070263335435	2
0	37043	3054.500677655208	1
0	37054	3054.79254544105	2
0	37055	3054.829871818637	1
0	37058	3054.883122036687	0
0	37111	3060.207671520375	1
0	37114	3060.503777620704	2
0	37115	3060.617335379016	1
0	37118	3060.905115307594	0
0	37213	3070.446507455033	1
0	37214	3070.714946245653	0
0	37225	3071.145136730968	1
0	37226	3071.145363500203	0
0	37291	3074.863483670111	1
0	37292	3074.913202097008	0
0	37327	3078.451442284148	1
0	37334	3079.037602958602	0
0	37360	3081.15378551146	1
0	37375	3082.065952589656	2
0	37381	3082.806525028118	3
0	37387	3083.073143873722	4
0	37399	3083.257268832135	5
0	37406	3083.620841969375	4
0	37409	3083.775665579539	3
0	37412	3083.969632424184	2
0	37415	3084.553710526702	1
0	37418	3084.929028842811	0
0	37483	3090.883909698508	1
0	37484	3091.075162066986	0
0	37510	3093.679980738965	1
0	37520	3094.136852357296	0
0	37567	3097.237279961438	1
0	37576	3097.690160861629	2
0	37577	3097.788213150397	1
0	37580	3097.911811017308	0
0	37732	3113.663976072854	1
0	37738	3114.00514636281	2
0	37744	3114.255775526441	3
0	37754	3114.403343822656	2
0	37757	3114.56328067013	1
0	37762	3114.731397953695	2
0	37768	3114.898515108032	3
0	37802	3116.916639378893	2
0	37805	3117.490122658609	1
0	37808	3117.696490510772	0
0	37885	3124.411664356586	1
0	37886	3124.57971657503	0
0	37921	3126.37566185345	1
0	37922	3126.857857321712	0
0	38011	3133.283833067693	1
0	38012	3133.308184679298	0
0	38035	3135.17427226892	1
0	38047	3135.622026864696	2
0	38050	3136.289684321268	3
0	38060	3136.740780881854	2
0	38065	3136.742499620942	3
0	38066	3136.844135464504	2
0	38069	3136.896711645761	1
0	38072	3137.044998324695	0
0	38158	3143.457830896217	1
0	38168	3144.291856465221	0
0	38221	3147.181310087367	1
0	38234	3147.71514517752	0
0	38245	3148.406979361815	1
0	38246	3148.427545511907	0
0	38284	3150.63962427512	1
0	38287	3150.700113389275	2
0	38297	3151.257260468155	1
0	38300	3151.393875678779	0
0	38353	3156.853166199915	1
0	38354	3156.908362565329	0
0	38359	3156.953743537465	1
0	38360	3157.099881906015	0
0	38521	3166.702918152393	1
0	38546	3169.110468126182	0
0	38563	3170.083958979044	1
0	38564	3170.234952096011	0
0	38581	3171.710529261791	1
0	38582	3171.921896709402	0
0	38599	3172.758453446237	1
0	38618	3173.735755204295	0
0	38662	3176.19961725943	1
0	38672	3176.807262758896	0
0	38722	3181.646798154665	1
0	38726	3181.762678616367	0
0	38731	3181.86115103612	1
0	38734	3181.962869066163	2
0	38735	3181.983631168224	1
0	38738	3182.073224599183	0
0	38743	3182.132798570636	1
0	38744	3182.181986349987	0
0	38779	3189.140785567353	1
0	38780	3189.143248898144	0
0	38797	3190.731600336146	1
0	38798	3190.767762709511	0
0	38863	3198.876360908211	1
0	38864	3199.468335992939	0
0	38899	3202.122609846879	1
0	38906	3202.360139704918	0
0	38929	3204.438378174862	1
0	38974	3206.097643121295	2
0	38977	3207.031449447263	3
0	38983	3207.178538969861	4
0	39017	3208.656532589803	3
0	39020	3208.726864023849	2
0	39023	3208.758587683711	1
0	39026	3208.907646138713	0
0	39043	3210.39667239926	1
0	39044	3210.498039326567	0
0	39061	3211.893752122474	1
0	39062	3212.093577571135	0
0	39079	3212.495206236225	1
0	39080	3212.50193741507	0
0	39121	3214.474486170789	1
0	39133	3215.434008270677	2
0	39155	3216.451620557731	1
0	39158	3216.701860979265	0
0	39175	3217.464871589659	1
0	39182	3218.061699762041	0
0	39190	3218.555307573104	1
0	39199	3218.818456411014	2
0	39209	3219.67834051062	1
0	39212	3219.884401796181	0
0	39229	3220.382486666805	1
0	39230	3220.39836068974	0
0	39235	3220.453279541785	1
0	39236	3220.589273931288	0
0	39367	3232.042126508002	1
0	39376	3232.426743273796	2
0	39377	3232.543643126965	1
0	39380	3232.586595053405	0
0	39505	3242.668292753363	1
0	39524	3243.581056017958	0
0	39529	3243.660743947845	1
0	39535	3244.178145172716	2
0	39539	3244.259713311143	1
0	39542	3244.282962805151	0
0	39565	3245.724717806453	1
0	39566	3246.245970253624	0
0	39571	3246.287302481956	1
0	39572	3246.319785081582	0
0	39598	3248.531513050101	1
0	39602	3248.922746246966	0
0	39613	3249.742043170406	1
0	39620	3250.062401800092	0
0	39625	3250.37881264049	1
0	39626	3250.462011298475	0
0	39757	3257.221463191909	1
0	39788	3259.414837402427	0
0	39805	3262.662532139586	1
0	39820	3263.626555364185	2
0	39821	3263.685293861784	1
0	39829	3263.723708394288	2
0	39835	3263.827194058306	3
0	39842	3264.132784047003	2
0	39845	3264.23857229937	1
0	39848	3264.340345108859	0
0	39889	3268.52120735757	1
0	39890	3268.633954112526	0
0	39970	3274.290083220673	1
0	39986	3275.133132107831	0
0	40021	3278.925221112303	1
0	40022	3278.93918747689	0
0	40051	3280.93155674445	1
0	40052	3281.096903190768	0
0	40114	3286.420404533098	1
0	40126	3287.18823456965	2
0	40127	3287.270221756603	1
0	40130	3287.415445826091	0
0	40195	3293.874964694817	1
0	40196	3293.875561300229	0
0	40225	3296.438458775083	1
0	40244	3297.054144777987	0
0	40354	3306.082688261491	1
0	40358	3306.325677676413	0
0	40381	3308.773402283506	1
0	40382	3308.976620876497	0
0	40447	3314.366741828832	1
0	40450	3314.412778663949	2
0	40451	3314.439131989783	1
0	40460	3314.799461815457	0
0	40480	3315.844923934007	1
0	40492	3316.538905814115	2
0	40499	3317.047016807742	1
0	40504	3317.188312710523	2
0	40505	3317.638510326327	1
0	40508	3317.80640388286	0
0	40561	3321.765203688478	1
0	40564	3322.038162448076	2
0	40565	3322.194682756022	1
0	40570	3322.256512342435	2
0	40571	3322.356457837437	1
0	40574	3322.902993055467	0
0	40594	3324.760397892635	1
0	40606	3325.86505304736	2
0	40643	3328.671271410143	1
0	40670	3330.811972777742	0
0	40741	3337.50242251443	1
0	40742	3337.537896676706	0
0	40750	3337.608602697309	1
0	40754	3337.760964607128	0
0	40771	3339.244124424166	1
0	40772	3339.291376520367	0
0	40783	3340.766105587832	1
0	40784	3340.804077611771	0
0	40903	3351.295689817126	1
0	40904	3351.546438261137	0
0	40972	3358.430806493237	1
0	41000	3360.098219325322	0
0	41029	3364.623535637046	1
0	41030	3364.640791057625	0
0	41143	3374.928327798715	1
0	41152	3375.3997326854	2
0	41153	3375.440839680578	1
0	41156	3375.634374629966	0
0	41230	3381.188893930998	1
0	41233	3381.445410685133	2
0	41236	3381.5053820526	3
0	41248	3381.769947832368	4
0	41257	3382.197394698312	5
0	41264	3382.439211107721	4
0	41267	3382.627526045075	3
0	41270	3382.978801369611	2
0	41273	3383.400604517076	1
0	41276	3383.55302119156	0
0	41365	3398.144596214694	1
0	41366	3398.278326656172	0
0	41383	3401.117119375231	1
0	41384	3401.655698689769	0
0	41407	3403.787917857614	1
0	41428	3405.625387106899	2
0	41431	3405.657699176215	3
0	41452	3406.132061912906	4
0	41453	3406.167119409303	3
0	41458	3406.475229523439	4
0	41459	3406.916449517363	3
0	41462	3407.064828956631	2
0	41465	3407.127076994454	1
0	41468	3407.395663883727	0
0	41521	3410.128829226177	1
0	41522	3410.315306440221	0
0	41593	3415.636627325968	1
0	41594	3415.683362088762	0
0	41611	3416.691673030611	1
0	41614	3416.773283205157	2
0	41615	3417.002428047096	1
0	41618	3417.069341999935	0
0	41635	3418.142730969308	1
0	41636	3418.341710208004	0
0	41659	3420.35607999208	1
0	41662	3420.708747883714	2
0	41663	3420.709525660471	1
0	41668	3420.733083985535	2
0	41669	3420.838055276514	1
0	41672	3420.991179698948	0
0	41698	3422.436930713357	1
0	41702	3422.736485779373	0
0	41827	3429.610577203195	1
0	41828	3429.618229067532	0
0	41836	3430.519498194864	1
0	41839	3430.768732550625	2
0	41843	3430.980222451164	1
0	41848	3430.988801442387	2
0	41854	3431.482910865305	3
0	41858	3431.706904462223	2
0	41861	3431.733265493309	1
0	41870	3432.180983640214	0
0	41878	3432.610341365919	1
0	41882	3432.80157300235	0
0	41896	3433.654420716816	1
0	41906	3434.017583762976	0
0	42043	3452.104034736834	1
0	42044	3452.379616348696	0
0	42049	3452.758841506468	1
0	42050	3452.766292257853	0
0	42085	3455.416314882671	1
0	42086	3455.426681720387	0
0	42097	3455.80139298356	1
0	42104	3456.034904454757	0
0	42115	3457.345784246806	1
0	42124	3457.596911133979	2
0	42125	3457.970669963623	1
0	42128	3458.974648365634	0
0	42157	3463.327061118308	1
0	42164	3463.671987626731	0
0	42181	3467.55120485697	1
0	42182	3467.625717079294	0
0	42226	3469.575092362523	1
0	42230	3470.306093156633	0
0	42235	3470.383330315635	1
0	42241	3470.577612640009	2
0	42245	3471.160893615316	1
0	42248	3471.200672965452	0
0	42268	3471.769322399704	1
0	42272	3472.081726320312	0
0	42292	3473.455433042645	1
0	42302	3473.803405654631	0
0	42379	3479.989442080018	1
0	42380	3480.045978798904	0
0	42457	3487.287903527466	1
0	42458	3487.449868325627	0
0	42553	3495.42105875056	1
0	42554	3495.60527004306	0
0	42601	3497.826807091041	1
0	42602	3497.894937582455	0
0	42607	3497.964885409055	1
0	42608	3497.967031007609	0
0	42619	3498.179403867341	1
0	42622	3498.432582445428	2
0	42643	3499.246822310248	3
0	42656	3500.081596122493	2
0	42667	3500.908038983993	3
0	42668	3501.234960922964	2
0	42671	3501.382047314659	1
0	42674	3501.46914758887	0
0	42691	3502.531144106278	1
0	42692	3502.662027707232	0
0	42724	3504.351203953584	1
0	42746	3505.349265990594	0
0	42811	3512.861464984771	1
0	42812	3512.958463487515	0
0	42844	3515.725049081643	1
0	42848	3516.063864792331	0
0	42865	3517.064084085668	1
0	42866	3517.135647664368	0
0	42919	3523.421708674898	1
0	42944	3524.382137496305	0
0	43063	3536.395258597804	1
0	43064	3536.418210813668	0
0	43099	3540.862850388484	1
0	43100	3541.489248417077	0
0	43132	3543.500685521093	1
0	43150	3545.374580881013	2
0	43151	3545.594838227274	1
0	43154	3546.294479691962	0
0	43162	3546.847535134877	1
0	43166	3547.29675846127	0
0	43183	3548.654105367439	1
0	43184	3548.802906095032	0
0	43201	3552.401901608233	1
0	43202	3552.443665763567	0
0	43249	3558.264548930936	1
0	43256	3558.821545298503	0
0	43375	3566.538941867403	1
0	43382	3567.048192283543	0
0	43441	3571.935411355177	1
0	43454	3572.276009274119	0
0	43471	3573.219386717124	1
0	43478	3573.845978462059	0
0	43492	3574.244172166577	1
0	43496	3574.496976156217	0
0	43507	3576.260590031523	1
0	43516	3576.798398841279	2
0	43517	3577.384233112595	1
0	43520	3577.621781694374	0
0	43639	3588.782328436845	1
0	43652	3589.54910757766	0
0	43675	3591.394713504866	1
0	43676	3591.519398792487	0
0	43687	3591.850557403532	1
0	43688	3591.897699756641	0
0	43711	3593.934843497143	1
0	43712	3594.530359685232	0
0	43759	3598.578764329258	1
0	43760	3598.697838145743	0
0	43789	3602.42456480878	1
0	43790	3602.678633956565	0
0	43825	3606.758096634315	1
0	43826	3607.144895115933	0
0	43837	3607.408716141441	1
0	43838	3607.960450669325	0
0	43873	3611.098667484819	1
0	43874	3611.384494622125	0
0	43885	3612.384990465043	1
0	43886	3612.448192482627	0
0	43903	3612.940722947557	1
0	43904	3613.318179078412	0
0	43927	3615.312429050146	1
0	43928	3615.480715973258	0
0	44077	3631.15224190968	1
0	44078	3631.158017897867	0
0	44113	3632.55979940354	1
0	44114	3632.803166909384	0
0	44182	3639.711020237326	1
0	44210	3641.623163268617	0
0	44218	3641.974204497278	1
0	44221	3642.033946058367	2
0	44225	3642.11977649763	1
0	44228	3642.410374727825	0
0	44257	3645.158851091611	1
0	44258	3645.371181759396	0
0	44299	3650.201911312934	1
0	44300	3650.332604239998	0
0	44335	3653.615350487877	1
0	44336	3653.77154728075	0
0	44476	3666.620371236873	1
0	44482	3667.184080341448	2
0	44483	3667.323317051623	1
0	44486	3667.570441167688	0
0	44515	3668.827736166069	1
0	44516	3668.899431104632	0
0	44641	3681.510813899238	1
0	44642	3681.847819945986	0
0	44653	3682.217454475082	1
0	44654	3682.250285166552	0
0	44689	3685.739737170764	1
0	44690	3685.817754010482	0
0	44707	3686.618506350653	1
0	44708	3686.728983236143	0
0	44767	3691.698376482857	1
0	44770	3692.035551314732	2
0	44771	3692.35504929261	1
0	44774	3692.436116215674	0
0	44809	3694.996989396726	1
0	44810	3695.103032427209	0
0	44977	3709.01872752604	1
0	44980	3709.242278733493	2
0	44981	3709.418324486777	1
0	44984	3709.449923957299	0
0	45010	3711.569352085036	1
0	45020	3712.126702987897	0
0	45091	3721.570967997765	1
0	45092	3721.674028810906	0
0	45151	3728.369121213405	1
0	45164	3729.536868452788	0
0	45175	3730.316925510458	1
0	45176	3730.748923606899	0
0	45217	3735.802331526509	1
0	45218	3735.849304134234	0
0	45259	3739.265070336092	1
0	45260	3739.287159545097	0
0	45265	3739.592047270187	1
0	45266	3740.527803159468	0
0	45283	3740.800129571434	1
0	45296	3741.471127154569	0
0	45361	3746.534010967724	1
0	45362	3746.687865649205	0
0	45373	3747.057825595351	1
0	45386	3747.675532882001	0
0	45403	3748.420907078014	1
0	45418	3749.818592404242	2
0	45419	3749.851307543966	1
0	45422	3749.907383136046	0
0	45454	3752.921678632011	1
0	45458	3753.01916393899	0
0	45529	3758.218967219696	1
0	45548	3759.021457500437	0
0	45571	3761.297207880159	1
0	45572	3761.304808839017	0
0	45586	3762.028420359117	1
0	45614	3763.962009152778	0
0	45649	3767.112268652453	1
0	45656	3767.723879848127	0
0	45676	3769.41350121849	1
0	45686	3769.70197500692	0
0	45691	3769.947403896719	1
0	45692	3769.984241604121	0
0	45745	3775.274900855177	1
0	45746	3775.358423895017	0
0	45811	3785.325827840339	1
0	45812	3785.372592381609	0
0	45823	3785.513194506299	1
0	45824	3785.747271170636	0
0	45847	3788.491557921334	1
0	45848	3788.503218195293	0
0	45889	3791.14269041166	1
0	45892	3791.31726093569	2
0	45899	3791.571235745025	1
0	45902	3791.697967882448	0
0	45910	3792.310769655001	1
0	45914	3792.957921997622	0
0	45922	3793.166003617333	1
0	45928	3793.389942352541	2
0	45929	3793.397035120438	1
0	45932	3793.414362954365	0
0	45955	3795.244469297598	1
0	45985	3796.703293285845	2
0	45989	3796.862713448427	1
0	45992	3796.898633852605	0
0	46099	3803.55436387705	1
0	46106	3804.361787000307	0
0	46111	3804.540539474085	1
0	46114	3804.650206369596	2
0	46115	3805.16083093526	1
0	46126	3805.420392676579	2
0	46127	3805.488972841992	1
0	46130	3805.845194070203	0
0	46159	3807.518614866466	1
0	46160	3807.657326304076	0
0	46174	3808.560262416673	1
0	46177	3808.82025732459	2
0	46181	3809.032163093199	1
0	46184	3809.307400003046	0
0	46258	3815.765880280321	1
0	46268	3816.078256741434	0
0	46336	3822.346585736758	1
0	46340	3822.390942568432	0
0	46414	3831.211358091978	1
0	46418	3831.483887618099	0
0	46483	3835.1398675575	1
0	46489	3835.195997662478	2
0	46495	3835.561092038692	3
0	46508	3836.545143011335	2
0	46519	3837.716719242248	3
0	46520	3837.805483892338	2
0	46523	3838.154445187842	1
0	46526	3838.294028557031	0
0	46573	3843.868388242418	1
0	46576	3843.907540467815	2
0	46579	3843.926309726251	3
0	46580	3843.965462073253	2
0	46585	3844.407332585619	3
0	46586	3844.498118084506	2
0	46589	3844.783543652276	1
0	46592	3844.935113233278	0
0	46618	3847.271253375163	1
0	46622	3847.370008223772	0
0	46663	3850.611111309234	1
0	46666	3850.656028429653	2
0	46667	3850.868042515666	1
0	46670	3851.242957972678	0
0	46711	3853.7194614735	1
0	46712	3853.728951157992	0
0	46723	3854.667352067294	1
0	46730	3854.890170182439	0
0	46747	3858.80477732912	1
0	46754	3859.299097569446	0
0	46831	3864.809067560069	1
0	46832	3864.838733399175	0
0	46909	3872.255133522669	1
0	46910	3872.572434723742	0
0	46951	3877.53294894343	1
0	46952	3877.557162356712	0
0	46969	3878.799099548677	1
0	46970	3878.832008234613	0
0	47017	3884.99789568358	1
0	47018	3885.177134972774	0
0	47077	3888.877521006463	1
0	47096	3890.018440977118	0
0	47125	3891.116459777778	1
0	47126	3891.25836088955	0
0	47203	3900.354535196573	1
0	47204	3900.607244162618	0
0	47233	3901.853904104939	1
0	47236	3901.85494262095	2
0	47237	3901.987369623696	1
0	47240	3902.320647811312	0
0	47260	3905.04085906702	1
0	47264	3905.080992533173	0
0	47323	3909.049023145613	1
0	47330	3909.954942218771	0
[...]
2	117205	13556.060144479979	0.100618097775
2	117211	13556.863727164609	0.201036573908
2	117217	13556.979358108834	0.002371847183
2	117223	13559.008852339933	0.013453381284
2	117229	13561.439575757244	0.188733209772
2	117235	13561.744962871832	0.09622764935
2	117241	13562.831551399743	0.312169992918
2	117247	13563.809367726828	0.692611698217
2	117253	13564.895432319132	0.539928609679
2	117259	13566.993319684619	0.418596753138
2	117265	13567.144469810954	0.025594586371
2	117271	13567.822540755682	0.025066867831
2	117280	13570.203692363735	0.179437487193
2	117283	13570.336274707809	0.290334270025
2	117289	13571.92503864438	0.419915850784
2	117295	13573.470772892171	0.199818054975
2	117301	13573.907199621456	0.397793486901
2	117307	13574.464248736963	0.174915432702
2	117313	13576.481908798299	0.004326128018
2	117325	13577.665736066397	0.623740093718
2	117328	13577.745414870495	0.633539244066
2	117331	13577.87771571341	0.587487223011
2	117337	13578.940246129229	0.182507594882
2	117349	13581.97264693874	0.511105907242
2	117352	13582.101088916366	0.606429916345
2	117355	13582.32247164821	0.521263851198
2	117361	13585.895173521433	0.159767398296
2	117367	13586.801846569346	0.577291277696
2	117373	13587.186188531158	0.058433435296
2	117379	13599.343861704003	0.516572262307
2	117385	13599.970283689429	0.073335403501
2	117391	13600.303451343567	0.032472587718
2	117397	13604.07449611944	0.120022109205
2	117403	13604.729421369864	0.236273556406
2	117409	13606.834153762984	0.469712626268
2	117415	13608.266140821415	0.316808298956
2	117421	13609.377647328335	0.142252674605
2	117430	13611.041502155448	0.163167082385
2	117433	13611.496615628352	0.607994997347
2	117439	13612.108356611942	0.156576612264
2	117445	13612.453474959213	0.174820750476
2	117454	13613.03973235058	0.244515819246
2	117460	13613.806495242532	0.81210966687
2	117466	13614.095693770903	0.779430431769
2	117472	13614.759902585824	0.894005175737
2	117475	13614.984479966186	0.830736459151
2	117484	13615.909635388588	0.428179752418
2	117487	13615.959822448827	0.303511673569
2	117493	13616.764871352446	0.019473743111
2	117499	13617.746245035388	0.044227062996
2	117505	13619.285336819922	0.139784172833
2	117511	13619.749562194331	0.044256240758
2	117520	13622.130017284119	0.057501801864
2	117523	13622.144107449984	0.01694106859
2	117529	13625.704599731066	0.096408435108
2	117535	13628.813044141604	0.011819190923
2	117541	13630.236021747583	0.653875712534
2	117550	13630.914262641685	0.508292068795
2	117553	13631.0907139099	0.344804072555
2	117559	13632.670769041312	0.262316255977
2	117568	13635.547385570706	0.515727879714
2	117571	13635.766942479796	0.430158431637
2	117580	13640.477954299135	0.075181888182
2	117586	13641.166307960907	0.724397561125
2	117589	13641.218442736065	0.257201081729
2	117595	13643.048406203885	0.449890421382
2	117601	13647.020265302781	0.204960602393
2	117607	13647.977308738466	0.585118812052
2	117613	13651.194156009369	0.084813219133
2	117619	13654.283666128416	0.562936925419
2	117625	13657.292754974616	0.027822335315
2	117631	13657.991684793927	0.39751487399
2	117640	13659.8863285365	0.298238545972
2	117643	13660.224677260629	0.533809330408
2	117649	13660.506560850007	0.069561343944
2	117658	13662.006245280405	0.26509391645
2	117661	13662.556481681432	0.680156330698
2	117667	13665.981737144643	0.027860805902
2	117673	13666.012991460571	0.023376925699
2	117682	13666.549910510569	0.482902951155
2	117685	13666.944953484786	0.665271508475
2	117691	13668.355439508315	0.12989613427
2	117697	13668.956265904037	0.002897290672
2	117703	13670.236483671876	0.130807756889
2	117709	13671.409451218058	0.027701108533
2	117715	13673.629018279117	0.528245876218
2	117724	13676.140220440549	0.565939098248
2	117727	13676.573047419695	0.641044582275
2	117733	13677.325029692681	0.097826435477
2	117739	13678.350596039544	0.198002298948
2	117745	13678.771447356889	0.081668402253
2	117751	13680.135080088084	0.06699078789
2	117757	13681.055596966185	0.036208221845
2	117763	13682.890019380735	0.603566366895
2	117769	13683.405567655884	0.232877149334
2	117775	13684.218527620118	0.034468215527
2	117781	13684.403200905239	0.036120868853
2	117787	13687.073684295181	0.035166572777
2	117793	13687.736620838239	0.608286694468
2	117799	13688.516091883894	0.087592638971
2	117805	13689.235281558902	0.083597284169
2	117811	13689.568275887167	0.100596878616
2	117817	13690.511172891889	0.209421684692
2	117823	13692.116398302929	1.010994364624
2	117829	13692.356842198081	0.065428528658
2	117835	13692.71793011606	0.063056078788
2	117841	13695.06200203224	0.648819498178
2	117847	13697.119068396192	0.07540397574
2	117853	13698.924469318736	0.171946904531
2	117859	13701.702924042578	0.172143295228
2	117868	13703.353197627486	0.83545333529
2	117871	13703.367629924367	0.845703707221
2	117877	13703.854771678718	0.049291901091
2	117883	13710.049683294407	0.096981886642
2	117889	13710.529089162928	0.025934295358
2	117895	13718.396089189807	0.035999665224
2	117904	13718.902554003705	0.296465970862
2	117913	13720.074102688276	1.392915474791
2	117916	13720.209662277891	0.951702706445
2	117919	13720.267456865982	0.336775255619
2	117925	13721.32791940831	0.141376843922
2	117931	13722.405838970605	0.127663954779
2	117937	13723.178144925402	0.258089730075
2	117943	13725.486441144091	0.034354547382
2	117949	13725.863884514817	0.00390406637
2	117955	13727.60151688295	0.463279788591
2	117961	13728.740293795798	0.032767172264
2	117967	13729.389731445961	0.01445063918
2	117973	13729.861958276627	0.156875153787
2	117979	13732.172071968788	0.165501098341
2	117985	13733.034121751668	0.405176785666
2	117991	13733.276303011839	0.221256497601
2	117997	13735.150200415386	0.042631509631
2	118003	13736.235509675443	0.328375197576
2	118009	13738.359573177329	0.368901516851
2	118018	13740.314016562328	0.40221690773
2	118021	13740.569436718599	0.632261890177
2	118027	13742.058811720175	0.268717441297
2	118033	13742.28321419663	0.162685262719
2	118039	13743.727951969322	0.113268838633
2	118045	13744.805422303911	0.640226272346
2	118051	13745.267851565985	0.029118362021
2	118057	13746.645049148832	0.279641102659
2	118063	13749.134210255662	0.116877199179
2	118072	13749.86461634854	0.019915153921
2	118075	13750.113355395331	0.255090666268
2	118081	13751.817998713188	0.022447794123
2	118087	13753.558855687911	0.496385660187
2	118093	13755.279826396123	0.046082708367
2	118099	13755.931461177144	0.016374939114
2	118105	13758.945468975403	0.278565168089
2	118111	13763.86647600121	0.208888787947
2	118117	13764.163835105135	0.282718800805
2	118123	13768.08016932989	0.135591360689
2	118129	13768.859905081639	0.048272791906
2	118138	13771.456340058508	0.599735817211
2	118141	13772.671543395953	1.79625799
2	118150	13773.747931943741	0.851422734833
2	118153	13774.036841467304	0.607656329662
2	118159	13775.385686545425	0.176044312065
2	118165	13775.660494390618	0.206975698313
2	118171	13777.800303406133	0.012593666823
2	118177	13778.216015745321	0.072133616973
2	118186	13779.502529458787	0.445471526191
2	118189	13780.484579237021	1.375521660078
2	118198	13781.01844746573	0.278386051126
2	118201	13781.045108785892	0.16151779114
2	118207	13782.710288463388	0.108560081257
2	118213	13783.705168828309	0.340308624361
2	118219	13784.443950342	0.203233814946
2	118225	13784.986364049334	0.43781528103
2	118234	13786.5202566469	0.375419722887
2	118237	13786.956792321418	0.698636415556
2	118243	13790.765453257547	0.008605827885
2	118252	13792.529301494402	0.524974172907
2	118255	13792.802974622407	0.544618336823
2	118261	13793.92549943232	0.232691863729
2	118267	13794.807907860287	0.166374320868
2	118273	13796.72524225383	0.153957577886
2	118282	13798.644037214304	0.715794748424
2	118285	13798.667873040486	0.658097202352
2	118291	13801.637562524374	0.55156746924
2	118297	13805.988734545981	0.30730255982
2	118306	13807.555002279325	0.08667241711
2	118312	13808.424096960741	0.950290775995
2	118315	13808.989466714221	0.817189151939
2	118321	13809.950315376518	0.000833378057
2	118327	13814.741442413505	0.801200997815
2	118333	13815.719651441149	0.083679855115
2	118339	13816.33453639281	0.061908390025
2	118348	13816.903340376587	0.147572894961
2	118351	13817.009779235545	0.182390373919
2	118357	13818.638306753527	0.32333869044
2	118363	13819.150741850486	0.167451543755
2	118369	13820.910627475734	0.455725270367
2	118375	13824.882467957591	0.106690293854
2	118381	13825.756835350299	0.378023986326
2	118387	13826.145508991128	0.159139056843
2	118396	13826.322130199479	0.112868198133
2	118399	13826.37259956234	0.070925988122
2	118405	13827.19443021502	0.304479688291
2	118411	13830.001906799707	0.399197914775
2	118417	13833.354753314053	0.176466774793
2	118423	13833.896701034547	0.024250260949
2	118429	13836.52840260548	0.232897716469
2	118435	13842.101049694612	0.28159385723
2	118441	13844.346078340779	0.13720331503
2	118453	13850.791051175747	0.261635880906
2	118456	13851.073673779213	0.505148283535
2	118459	13851.127958208209	0.428805146332
2	118465	13854.407628459817	0.117503402244
2	118471	13855.1764570192	0.021290719266
2	118477	13856.515773554176	0.458911620292
2	118483	13857.467006006405	0.416768052578
2	118489	13863.359636436248	0.203013623855
2	118495	13864.61512827776	0.465551046888
2	118504	13869.105222026945	0.659550907469
2	118507	13869.130521635102	0.597258643005
2	118513	13871.842484190449	0.160630426203
2	118519	13872.403851533829	0.074921034532
2	118525	13874.661258011504	0.219453101259
2	118531	13875.208548083123	0.16053017716
2	118537	13876.479146494211	0.129734457042
2	118546	13876.719891485654	0.224051372567
2	118552	13877.098957007594	0.422620781759
2	118555	13877.727512116091	0.827940995731
2	118561	13878.844068327308	0.390088240167
2	118567	13879.914777554112	0.099019950606
2	118573	13880.085930558241	0.089286240392
2	118579	13881.340407507277	0.07449826609
2	118585	13882.163577100071	0.230192392324
2	118591	13883.687837991824	0.428510718313
2	118597	13885.371876189644	0.208348804636
2	118603	13888.068204812073	0.295511912781
2	118609	13888.891752236899	0.60005807298
2	118615	13889.277397546664	0.042287965541
2	118621	13890.916245049435	0.939922652809
2	118627	13896.601047977586	0.449307781944
2	118633	13897.416523954923	0.07159262573
2	118639	13897.504863732306	0.026116110054
2	118645	13900.919035268417	1.33352867895
2	118651	13901.37313725231	0.102048702651
2	118657	13901.749130445589	0.050246929451
2	118663	13902.090066456075	0.048921636894
2	118669	13904.158244384074	0.137123865296
2	118675	13907.527266435946	0.02404597803
2	118681	13909.168453309248	0.087631253785
2	118687	13911.786887499875	0.353812304269
2	118693	13913.090989828775	0.070915590809
2	118702	13917.621000102013	0.514041265839
2	118705	13917.722833966807	0.34172747566
2	118714	13918.20044023113	0.364173745628
2	118717	13919.062663703022	0.863559078519
2	118723	13925.309732626023	0.629170210718
2	118729	13927.74184641301	0.021933425462
2	118735	13929.659035068622	0.028769800032
2	118741	13930.613866276433	0.225009071864
2	118747	13930.9695039131	0.060724814748
2	118753	13932.940045771331	0.546026051995
2	118759	13937.324576399133	0.121128623103
2	118765	13939.68588895734	0.377680772255
2	118771	13940.08492781134	0.079160627629
2	118780	13942.380432962533	1.014104828257
2	118783	13942.396569301552	0.976102755428
2	118789	13943.508005688988	0.024295201398
2	118795	13943.824374365191	0.123772232528
2	118801	13944.200692617576	0.020761703781
2	118807	13945.586625497584	0.028800611654
2	118813	13946.700213657295	0.368913705263
2	118819	13948.324454821328	0.184631957912
2	118825	13948.647069741594	0.122295527178
2	118831	13948.944712720483	0.272183768651
2	118840	13949.955839604689	0.413635252197
2	118843	13949.975566212965	0.071843170491
2	118849	13950.563101754742	0.372119245793
2	118855	13953.702929441955	0.277805310532
2	118861	13955.176353627034	0.228519935405
2	118867	13957.140626332275	0.017544864019
2	118882	13963.63275102217	2.301912959378
2	118885	13963.863277556198	2.52947725228
2	118888	13963.991048947176	2.322446450265
2	118891	13964.13958017572	1.811224439104
2	118897	13965.983319025912	0.033537007743
2	118903	13969.99872940745	0.005445499117
2	118909	13971.763586407328	0.122842217963
2	118915	13973.625459248444	0.405503860948
2	118921	13974.235977709677	0.310132686722
2	118927	13974.684574024405	0.008788078108
2	118933	13976.446195541856	0.182640434575
2	118942	13978.585574903273	0.219990843396
2	118945	13978.653538670864	0.073431247536
2	118951	13981.836315102841	0.193642300939
2	118957	13984.026915170989	0.550482762146
2	118963	13986.670000892508	0.311554290697
2	118978	13988.317709580971	1.227313246557
2	118981	13988.408652884906	1.10754897298
2	118990	13988.583895383546	0.645164502303
2	118993	13988.591435689099	0.297830884786
2	118999	13988.961758892858	0.472385509104
2	119005	13989.07376902081	0.498594559868
2	119008	13989.133224869591	0.477944226995
2	119014	13989.426712556814	0.392500910208
2	119017	13989.547252716402	0.382308369226
2	119023	13991.112089172765	0.015951702398
2	119032	13991.716619336784	0.583390622352
2	119035	13991.724188977497	0.497578703099
2	119044	13992.473013574396	0.095565008176
2	119047	13993.507310193533	1.038708092721
2	119053	13994.031658520888	0.476961771426
2	119059	13998.660549934053	0.254573617243
2	119065	13999.125309051806	0.020566935991
2	119071	14001.050199991565	0.211250686647
2	119077	14001.602571619379	0.215065800139
2	119083	14004.8553676607	0.783038802451
2	119089	14010.358280382393	0.124615963124
2	119095	14012.820226416956	0.310104656991
2	119101	14013.958783179113	0.105589537472
2	119107	14020.060944956159	0.043851178403
2	119113	14023.513365160506	0.342345872447
2	119119	14025.978193651338	0.391865698575
2	119128	14027.672997856443	0.218978855341
2	119131	14027.756869530202	0.206718592264
2	119137	14031.33894101893	0.053654929433
2	119143	14031.508606962342	0.15186419012
2	119149	14035.293792649015	0.34085802614
2	119155	14036.066961815218	0.169910500997
2	119164	14040.763355440036	0.126676765555
2	119167	14041.53395228508	0.806347542959
2	119173	14041.84862725259	0.266535593484
2	119179	14044.646028157835	0.09169515579
2	119185	14045.58195947745	0.396014529058
2	119191	14049.291381008285	0.027481437697
2	119197	14049.714405732312	0.409511488557
2	119206	14050.674341570117	0.706297611501
2	119209	14050.920341899175	0.90648933835
2	119215	14051.86120689869	0.109107271233
2	119224	14052.79210369885	0.309196441913
2	119227	14053.028739965572	0.421445181568
2	119233	14054.258389935906	0.776213193868
2	119239	14054.984695624464	0.229898927291
2	119245	14057.119799695667	0.031042786052
2	119251	14057.978524835078	0.271153752573
2	119257	14060.32035464343	0.148556319036
2	119263	14062.646022064747	0.197364726538
2	119269	14065.328481607057	0.012204180616
2	119278	14067.413932597341	0.560871904753
2	119281	14067.431524476277	0.132796480599
2	119287	14073.377419519958	0.188354429716
2	119296	14077.779963179947	0.340984012442
2	119299	14077.862521509842	0.285218569693
2	119308	14078.974167063035	0.34666256418
2	119311	14079.143167648482	0.417476975144
2	119317	14080.653248797594	0.217557370771
2	119326	14082.165220595947	0.165417395292
2	119329	14082.362931559426	0.338603431333
2	119335	14084.873283979874	0.257176489671
2	119344	14085.029701151006	0.09597747763
2	119347	14085.110870657751	0.09176447224
2	119353	14085.645864977191	0.235132496491
2	119359	14087.984081303072	0.041649291105
2	119365	14088.539211350632	0.064220737793
2	119371	14091.938123541028	0.015210399095
2	119377	14093.24260444302	0.72273027614
2	119383	14094.174377148291	0.299234747528
2	119389	14096.787488879713	1.012979345099
2	119395	14101.513970373909	0.692972230445
2	119401	14103.561473976585	0.150874074264
2	119407	14106.052866079042	0.054046111974
2	119416	14106.521650908855	0.222173667358
2	119419	14106.699755485265	0.293758987549
2	119425	14107.382542444857	0.213243441038
2	119431	14108.414747420252	0.197582878643
2	119437	14108.85006504829	0.121383187765
2	119443	14109.970851784716	0.094607444023
2	119449	14111.52569760972	0.43162949903
2	119455	14112.591872469203	0.797861711155
2	119461	14113.729812794783	0.626901338613
2	119473	14115.01417695844	1.167444167166
2	119476	14115.08349641026	0.759102581889
2	119479	14115.210558710684	0.450262664899
2	119485	14115.894727003082	0.053551442348
2	119491	14115.994367587041	0.081650106205
2	119497	14116.457192114468	0.222056163933
2	119503	14118.469086969353	0.403166082141
2	119509	14123.869130038099	0.499120311206
2	119515	14126.651985756677	0.36401431846
2	119521	14127.384963095467	0.534258911386
2	119527	14130.215829350882	0.01742293126
2	119533	14132.032488403815	0.04329096787
2	119539	14133.188412617606	0.137350719055
2	119548	14134.1658444422	0.415243732711
2	119551	14134.253233520095	0.418789343165
2	119557	14136.132002785833	0.050808862152
2	119563	14140.522979945121	0.229538743399
2	119569	14141.582706869214	0.098556553025
2	119575	14143.177490964342	0.105422777298
2	119581	14143.263420274856	0.021510298966
2	119587	14144.389751414554	0.382887655897
2	119593	14144.952436670995	0.028961881806
2	119599	14145.181279222123	0.010473466321
2	119605	14147.188888887485	0.389674922625
2	119611	14150.378548822459	0.163099196463
2	119617	14151.428429204608	0.20373159285
2	119623	14154.430160989163	0.350947448198
2	119629	14155.78878596206	0.299987642711
2	119635	14156.536545122284	0.198498620017
2	119641	14157.733010360193	0.41890811096
2	119647	14159.187091590593	0.009694203093
2	119653	14159.302705536433	0.070025367558
2	119659	14159.94958574819	0.132085539641
2	119665	14161.814309715311	0.391037718995
2	119674	14163.638111021177	0.546586256076
2	119680	14163.927392305525	0.483166955877
2	119683	14164.036081033735	0.278322283453
2	119689	14166.629529442618	0.358627898698
2	119695	14167.56355859815	0.002365545804
2	119704	14168.821659730113	0.528066927227
2	119707	14169.188377561222	0.726620083277
2	119713	14169.45449160255	0.035507788185
2	119719	14171.440693227089	0.161832463869
2	119725	14172.035780716882	0.242871684545
2	119734	14174.872348997666	0.420865245138
2	119737	14174.879414270147	0.184104758664
2	119743	14175.010894977304	0.065553651327
2	119749	14175.266886377034	0.211731008049
2	119758	14178.105769235489	0.633558655318
2	119761	14178.193904788248	0.244530465346
2	119767	14179.863511713645	0.070559482773
2	119773	14180.822644036132	0.116721071653
2	119779	14182.898419550128	0.141846964441
2	119788	14184.370482180202	0.521224275185
2	119791	14184.455463911466	0.511246936977
2	119797	14184.668378451583	0.021226988617
2	119803	14185.704644888024	0.240302401901
2	119809	14186.773822066276	0.805923395588
2	119815	14187.084786047142	0.085650359014
2	119821	14187.339598832875	0.164747483499
2	119827	14188.215523758178	0.481182667683
2	119833	14191.880933702074	0.260485730874
2	119839	14198.762491143385	0.124457298714
2	119845	14199.709681064432	0.182636131625
2	119851	14200.770534627723	0.451841977811
2	119857	14201.337399755104	0.108220216213
2	119863	14202.300590659321	0.050866320075
2	119869	14203.195028073268	0.090570416357
2	119875	14204.935404779224	0.035641924612
2	119881	14206.774688457339	0.074119458113
2	119887	14207.135134357009	0.245837145912
2	119893	14207.207864519108	0.05204345133
2	119899	14208.251527188716	0.00048085317
2	119905	14209.838296288086	0.008710435566
2	119911	14210.572960554066	0.107176286249
2	119920	14214.030769976486	0.378536069671
2	119923	14214.037639036557	0.242757717073
2	119929	14215.384533329232	0.064167008972
2	119935	14215.581652934567	0.001907389849
2	119941	14218.12228256795	0.029715350357
2	119947	14219.257902023828	0.065887397921
2	119953	14220.606733178704	0.340017803783
2	119959	14222.135532235569	0.534795503901
2	119965	14223.394979770343	0.048800663569
2	119971	14227.893707079124	0.162678610189
2	119977	14229.757680930314	0.056625428075
2	119983	14230.615331711106	0.408273716496
2	119989	14231.633536452587	0.581601893418
2	119995	14231.925532328589	0.23576212714
2	120001	14233.578033271058	0.483696737423

