version 2
run General-0-20200403-21:45:44-37242
attr configname General
attr datetime 20200403-21:45:44
attr experiment General
attr inifile omnetpp.ini
attr iterationvars ""
attr iterationvarsf ""
attr measurement ""
attr network Mm3
attr processid 37242
attr repetition 0
attr replication #0
attr resultdir results
attr runnumber 0
attr seedset 0
param **.source.interArrivalTime exponential(1.0s)
param **.server.serviceTime exponential(1.0s)
param **.source.numJobs 10000
param **.server1.serviceTime exponential(1.0s)
param **.server2.serviceTime exponential(1.0s)

vector 0 Mm3.passiveQueue queueLength:vector ETV
attr interpolationmode sample-hold
attr title "queue length, vector"
vector 1 Mm3.sink lifeTime:vector ETV
attr interpolationmode none
attr title "lifetime of arrived jobs, vector"
attr unit s
0	0	0	0
0	41	9.5765830344	1
0	42	9.741828998506	0
0	46	10.226029382651	1
0	47	11.070207507363	0
0	181	34.07326898939	1
0	182	34.229300696258	0
0	186	34.561826038698	1
0	187	34.606687245044	0
0	366	80.123227435883	1
0	368	80.143417564029	2
0	370	80.183393863087	3
0	371	80.394432119719	2
0	374	80.726842360683	1
0	378	80.766272251954	2
0	379	80.867525821394	1
0	383	80.894329017265	2
0	385	81.245505106646	3
0	386	81.312945283314	2
0	389	81.439333919739	1
0	393	81.90115139101	2
0	395	82.283852339872	3
0	396	82.515297313989	2
0	399	82.606207446288	1
0	402	83.050181689746	0
0	451	93.647215474215	1
0	452	93.696034522121	0
0	586	120.66304912847	1
0	587	120.870435636319	0
0	616	127.519351687326	1
0	617	127.568436879199	0
0	706	141.179423002175	1
0	707	141.382981646026	0
0	741	148.155639143045	1
0	742	148.34043839429	0
0	791	157.502679284883	1
0	792	157.540567883644	0
0	816	163.071480215218	1
0	818	163.08824798121	2
0	819	163.30013289391	1
0	822	163.562462203076	0
0	1101	230.591972642857	1
0	1102	230.850053910691	0
0	1106	230.965735936674	1
0	1107	231.169628565564	0
0	1261	259.980249827743	1
0	1262	259.98686990899	0
0	1316	265.657512021526	1
0	1317	266.290054724023	0
0	1471	303.299022709843	1
0	1472	303.373773147931	0
0	1491	309.030864399373	1
0	1492	309.228546318511	0
0	1496	310.586158759728	1
0	1498	311.116120339	2
0	1499	311.376675803471	1
0	1502	311.598933899125	0
0	1691	345.795753072525	1
0	1692	345.985243120407	0
0	1811	365.341667061961	1
0	1812	365.855352434651	0
0	1886	378.414646780759	1
0	1887	378.762299124216	0
0	1891	379.114672416874	1
0	1892	379.362712426136	0
0	2021	408.5577504158	1
0	2023	408.615343332617	2
0	2025	409.010908933012	3
0	2026	409.066642918412	2
0	2030	409.10141640316	3
0	2031	409.331577856049	2
0	2035	409.372140793897	3
0	2036	410.284700394315	2
0	2039	410.318334315235	1
0	2042	410.323955917923	0
0	2106	422.073636774841	1
0	2108	422.444798495642	2
0	2109	422.552932668866	1
0	2113	422.622675253498	2
0	2115	423.640892832305	3
0	2116	424.333867343757	2
0	2119	424.936966738118	1
0	2122	425.007810787976	0
0	2126	425.286076259379	1
0	2128	425.745104186866	2
0	2130	425.812638343743	3
0	2131	425.958685085528	2
0	2135	426.187700286862	3
0	2136	426.198260541783	2
0	2139	426.538497761396	1
0	2142	426.611549418551	0
0	2241	450.998128051816	1
0	2242	452.156972876381	0
0	2366	472.656425716376	1
0	2367	472.94986788316	0
0	2371	473.085337552148	1
0	2373	473.110265647876	2
0	2374	473.147562679607	1
0	2377	473.308705258433	0
0	2381	474.312822992585	1
0	2382	474.339226390108	0
0	2386	474.454216105318	1
0	2387	474.740112107662	0
0	2461	489.258958383693	1
0	2462	489.453182916931	0
0	2601	524.856256368749	1
0	2602	525.02803288497	0
0	2706	542.370570993896	1
0	2707	542.548118183132	0
0	2831	575.785209786621	1
0	2832	576.062663352229	0
0	2836	576.926825310142	1
0	2837	576.953682316311	0
0	2841	577.265266442959	1
0	2843	577.309193677086	2
0	2844	577.834016671549	1
0	2847	577.957426143056	0
0	2906	587.290858178331	1
0	2907	587.462230237067	0
0	2951	595.964716433302	1
0	2953	596.172419719514	2
0	2954	596.537052351554	1
0	2957	596.929768530358	0
0	2961	597.288938293072	1
0	2962	597.677604479646	0
0	3141	636.129554823177	1
0	3142	636.134882341918	0
0	3326	672.210041524745	1
0	3328	672.342253124574	2
0	3329	672.391656707235	1
0	3332	672.407109270846	0
0	3336	672.764942912641	1
0	3337	673.262231036182	0
0	3341	673.2752143104	1
0	3342	673.658057931505	0
0	3346	673.755506124208	1
0	3348	673.777724776227	2
0	3349	674.167486441726	1
0	3352	674.28162622425	0
0	3601	726.619287168218	1
0	3603	726.794109168252	2
0	3605	726.823489115534	3
0	3606	726.97021869899	2
0	3609	727.027692735554	1
0	3612	727.128198259287	0
0	3616	727.25459094275	1
0	3617	727.626714591201	0
0	3976	803.5341055182	1
0	3977	804.028671329706	0
0	4001	807.622225285415	1
0	4002	807.630478853764	0
0	4176	832.960105177116	1
0	4178	833.043553194678	2
0	4180	833.094161403995	3
0	4181	833.527725779839	2
0	4184	833.737178608211	1
0	4188	833.822184286989	2
0	4189	833.874292788968	1
0	4192	833.907098343691	0
0	4881	990.152232187618	1
0	4882	990.209720533174	0
0	4901	994.213567795625	1
0	4903	994.360163588175	2
0	4905	995.647305693986	3
0	4906	995.83994703029	2
0	4909	995.988309125466	1
0	4912	996.02769677249	0
0	4956	1001.272939397052	1
0	4957	1001.470808071418	0
0	5041	1016.638345758782	1
0	5042	1016.63962409413	0
0	5046	1016.8910361357	1
0	5047	1017.16823745549	0
0	5161	1042.963936488246	1
0	5163	1043.253235816416	2
0	5165	1044.524021935794	3
0	5166	1044.733972569903	2
0	5170	1045.122267151148	3
0	5171	1045.164744482981	2
0	5174	1045.280030355184	1
0	5177	1045.458286886326	0
0	5181	1045.462366734293	1
0	5182	1045.76658443759	0
0	5226	1050.879448057279	1
0	5227	1050.895203099546	0
0	5246	1052.451172968812	1
0	5248	1052.465135037067	2
0	5250	1052.478735813055	3
0	5251	1052.691418054972	2
0	5254	1052.81420052422	1
0	5257	1053.348223864945	0
0	5296	1060.397091163438	1
0	5297	1060.460866357857	0
0	5301	1060.657516232927	1
0	5302	1060.769210952805	0
0	5361	1072.310473013165	1
0	5362	1072.311025157615	0
0	5596	1128.444014996101	1
0	5597	1128.881300616038	0
0	5621	1134.316793998385	1
0	5623	1134.768115583963	2
0	5624	1135.010934221114	1
0	5627	1135.909285485664	0
0	5696	1148.145845456115	1
0	5697	1148.188952574888	0
0	6011	1214.55724505808	1
0	6012	1214.652296109638	0
0	6106	1232.974229627392	1
0	6107	1233.310495911936	0
0	6116	1234.194229788286	1
0	6117	1236.282283926441	0
0	6221	1251.697277357052	1
0	6223	1252.058610012926	2
0	6224	1252.167178057432	1
0	6227	1252.436009966701	0
0	6241	1253.442271495598	1
0	6243	1253.501459693364	2
0	6244	1253.632822476603	1
0	6248	1255.052231371778	2
0	6250	1255.862573506294	3
0	6251	1256.099903792082	2
0	6254	1256.468047927694	1
0	6258	1256.508843126179	2
0	6259	1256.597891840659	1
0	6262	1256.603478541556	0
0	6366	1288.694076055177	1
0	6367	1288.743276793175	0
0	6371	1288.890005399115	1
0	6372	1288.986080830811	0
0	6376	1289.857730437238	1
0	6377	1289.934399561757	0
0	6381	1290.025426985853	1
0	6382	1290.121693455077	0
0	6461	1301.372446873477	1
0	6462	1301.398487443999	0
0	6576	1325.694908975564	1
0	6577	1326.484384188375	0
0	6671	1343.067320088766	1
0	6672	1343.193511255917	0
0	6681	1344.078069938019	1
0	6682	1344.081869913366	0
0	6711	1348.432875607122	1
0	6712	1348.858840873078	0
0	6716	1348.977357379746	1
0	6717	1349.532150438061	0
0	6721	1349.705347336588	1
0	6722	1350.043296639085	0
0	6991	1405.22479153208	1
0	6992	1405.619236474166	0
0	6996	1405.635894090513	1
0	6997	1405.995517527616	0
0	7046	1413.934213631967	1
0	7047	1414.026637208464	0
0	7271	1464.144413263885	1
0	7272	1465.013794337945	0
0	7301	1469.983477159946	1
0	7303	1469.99242103608	2
0	7305	1470.60624493484	3
0	7306	1471.787112994559	2
0	7309	1472.088644676779	1
0	7313	1472.825421263108	2
0	7314	1473.487862040673	1
0	7317	1473.527029250974	0
0	7391	1485.934321034572	1
0	7393	1486.157313453782	2
0	7395	1486.216967155922	3
0	7396	1486.328067012686	2
0	7399	1486.333898274564	1
0	7402	1486.672515318709	0
0	7421	1489.328248811767	1
0	7422	1489.439350564627	0
0	7581	1528.639251509408	1
0	7583	1528.77140749354	2
0	7584	1528.946933158768	1
0	7587	1528.966820563533	0
0	7591	1529.153048941522	1
0	7592	1529.607356709031	0
0	7596	1530.410500599192	1
0	7597	1530.656197871535	0
0	7606	1531.98006209677	1
0	7608	1532.676138020971	2
0	7609	1532.696309807763	1
0	7612	1532.784813367658	0
0	7796	1571.9226925047	1
0	7798	1572.400182429818	2
0	7799	1572.717287553211	1
0	7802	1573.068013103648	0
0	7816	1574.244570585589	1
0	7817	1574.289550118303	0
0	7916	1592.269790091151	1
0	7917	1592.403356201115	0
0	7926	1593.927880518241	1
0	7928	1594.201130858833	2
0	7930	1594.235998780952	3
0	7931	1594.292185484752	2
0	7935	1594.594619289215	3
0	7936	1594.785483140861	2
0	7939	1594.926558342791	1
0	7942	1595.481366409363	0
0	7951	1596.618026204124	1
0	7953	1596.772415245138	2
0	7954	1596.829776327474	1
0	7958	1597.239310953633	2
0	7959	1597.250538554876	1
0	7962	1597.25062564051	0
0	7976	1598.747049489689	1
0	7977	1598.839261186528	0
0	7986	1599.09723125877	1
0	7987	1600.090038305425	0
0	8001	1601.302826152934	1
0	8002	1601.385940025773	0
0	8006	1601.50116291511	1
0	8007	1601.519648440439	0
0	8086	1616.016680037196	1
0	8087	1616.024943426519	0
0	8141	1626.108320389809	1
0	8143	1626.508757493803	2
0	8144	1626.617498620601	1
0	8148	1626.876250799488	2
0	8149	1627.166297945723	1
0	8152	1627.511887011836	0
0	8416	1690.951896257526	1
0	8417	1691.227059083337	0
0	8421	1691.39320372369	1
0	8422	1691.64120363502	0
0	8426	1691.67097773769	1
0	8427	1691.850360716628	0
0	8506	1702.800178808843	1
0	8507	1703.222108106932	0
0	8601	1720.494010697986	1
0	8602	1720.607659424432	0
0	8711	1740.823664477233	1
0	8712	1741.047633231931	0
0	8716	1741.138007061198	1
0	8717	1741.537813176741	0
0	8726	1742.678463100194	1
0	8727	1742.695166873803	0
0	9101	1829.015006681582	1
0	9102	1829.197436983571	0
0	9111	1829.898462159216	1
0	9112	1830.175667942348	0
0	9131	1832.410263372733	1
0	9133	1832.51404503555	2
0	9135	1832.620833507881	3
0	9136	1833.025843234127	2
0	9140	1833.333772436263	3
0	9141	1833.686524490979	2
0	9144	1833.951554711613	1
0	9147	1834.062957715738	0
0	9306	1864.870426820006	1
0	9308	1864.956416555524	2
0	9309	1864.984325607277	1
0	9312	1865.085325989172	0
0	9446	1894.749940978488	1
0	9448	1894.869165024507	2
0	9449	1895.36322302256	1
0	9452	1895.366645112832	0
0	9516	1907.54987983747	1
0	9517	1907.55378185784	0
0	9536	1911.801065805335	1
0	9538	1912.362874995892	2
0	9539	1912.432159092293	1
0	9543	1913.571046074383	2
0	9545	1913.641829522519	3
0	9546	1913.669868105293	2
0	9549	1913.918149684818	1
0	9553	1914.026893054803	2
0	9554	1914.085591367665	1
0	9558	1914.364446762091	2
0	9559	1914.364673030788	1
0	9563	1914.70016417719	2
0	9565	1915.14010824182	3
0	9566	1915.433960650647	2
0	9570	1915.436915880149	3
0	9571	1915.572318213392	2
0	9574	1915.811907052309	1
0	9578	1916.316503217038	2
0	9579	1916.436514669694	1
0	9582	1916.704192349999	0
0	9716	1942.396547639602	1
0	9718	1942.525115688958	2
0	9720	1942.729825680713	3
0	9722	1942.870162805553	4
0	9724	1942.876385545298	5
0	9725	1942.927909241332	4
0	9728	1942.937237056464	3
0	9731	1943.074928970003	2
0	9735	1943.135328430091	3
0	9736	1943.16866723495	2
0	9740	1943.416519669306	3
0	9741	1943.834413428138	2
0	9745	1943.857329434389	3
0	9746	1944.852072945316	2
0	9749	1944.868077155858	1
0	9752	1945.522572044203	0
0	9781	1950.227287669857	1
0	9782	1950.790701933593	0
0	9786	1951.009884058774	1
0	9787	1951.1441292185	0
0	9986	1995.618086184316	1
0	9988	1995.780388079658	2
0	9989	1996.030575025551	1
0	9993	1996.477087816859	2
0	9994	1996.492400498082	1
0	9997	1996.577862758347	0
0	10386	2070.201821730412	1
0	10387	2070.683768746784	0
0	10621	2109.116110714169	1
0	10622	2109.214970336195	0
0	10746	2138.419711450811	1
0	10747	2138.747121188264	0
0	10751	2138.890320050856	1
0	10752	2139.195321364673	0
0	10896	2173.825457017903	1
0	10897	2174.921492772675	0
0	10926	2178.430068586601	1
0	10928	2178.642551097234	2
0	10930	2178.764253491486	3
0	10931	2178.816922570571	2
0	10934	2179.080062167195	1
0	10937	2179.593935829001	0
0	10956	2183.014319689203	1
0	10957	2183.020854398735	0
0	10966	2184.868939597185	1
0	10967	2185.849307072453	0
0	11476	2307.398093047627	1
0	11477	2307.565587908302	0
0	11496	2311.368009160206	1
0	11497	2311.516794041776	0
0	11501	2311.585902808343	1
0	11503	2311.881401048799	2
0	11504	2311.927593114238	1
0	11507	2312.093429517402	0
0	11786	2370.923086209951	1
0	11787	2370.977397723834	0
0	11886	2398.011720198936	1
0	11888	2398.329886746146	2
0	11889	2398.600780301245	1
0	11892	2398.728955949372	0
0	11951	2408.290532376799	1
0	11952	2408.452705830443	0
0	11956	2408.749987612869	1
0	11957	2409.499589463565	0
0	12376	2498.586460409756	1
0	12377	2498.873053537242	0
0	12391	2499.579792990437	1
0	12393	2499.769596709809	2
0	12395	2499.7867842899	3
0	12396	2499.96399987363	2
0	12399	2500.352500248394	1
0	12403	2500.402719861578	2
0	12404	2500.618599434692	1
0	12407	2500.78281642957	0
0	12416	2501.662685122897	1
0	12417	2501.669394520038	0
0	12421	2501.77672633541	1
0	12423	2502.039281321169	2
0	12424	2502.362250901556	1
0	12427	2502.475599390622	0
0	12441	2504.737393043529	1
0	12442	2504.75004288654	0
0	12491	2516.221725058506	1
0	12492	2516.357375404403	0
0	12496	2516.531062725492	1
0	12497	2516.857661320885	0
0	12551	2524.72259455087	1
0	12552	2524.968231564463	0
0	12761	2564.753249875907	1
0	12763	2565.417249349196	2
0	12764	2565.489453871001	1
0	12767	2565.574921894761	0
0	12771	2565.857699115224	1
0	12772	2566.211004223129	0
0	12776	2566.722056104331	1
0	12777	2566.990149949132	0
0	12866	2586.337296127185	1
0	12868	2586.510471413247	2
0	12870	2586.594077674659	3
0	12871	2587.149037986209	2
0	12874	2587.170032962494	1
0	12877	2587.677082006443	0
0	13056	2624.342633489587	1
0	13058	2624.504253817431	2
0	13059	2624.819073756206	1
0	13063	2624.905652812531	2
0	13064	2624.980903410587	1
0	13067	2625.104708968131	0
0	13116	2635.998343399552	1
0	13117	2636.762744420281	0
0	13126	2637.847531900887	1
0	13127	2638.410850600618	0
0	13421	2696.557274017225	1
0	13422	2696.734843430721	0
0	13426	2696.793149308551	1
0	13428	2696.851172078203	2
0	13429	2696.962191595009	1
0	13433	2697.695251171855	2
0	13434	2698.017419106894	1
0	13437	2698.032741208847	0
0	13676	2750.70868139359	1
0	13677	2750.736927241368	0
0	13716	2760.686066081071	1
0	13717	2760.775048045375	0
0	13801	2784.037846993606	1
0	13802	2784.065196392864	0
0	13956	2816.272892251206	1
0	13958	2816.663405496291	2
0	13959	2816.733363230654	1
0	13963	2816.773322971094	2
0	13965	2817.138167456971	3
0	13966	2817.172802488053	2
0	13970	2817.470456794455	3
0	13971	2817.7387151136	2
0	13974	2817.760979110978	1
0	13977	2817.867805332391	0
0	14206	2872.447526915288	1
0	14208	2872.522981196336	2
0	14209	2872.720940248105	1
0	14212	2873.371338103866	0
0	14346	2899.412384973286	1
0	14347	2899.544333606591	0
0	14606	2954.049780261844	1
0	14608	2954.167798562645	2
0	14610	2954.175639436647	3
0	14612	2954.632844458701	4
0	14614	2955.522039349819	5
0	14615	2955.651017537879	4
0	14619	2955.81367203374	5
0	14620	2955.947582434113	4
0	14623	2956.192895337419	3
0	14626	2956.434582797607	2
0	14629	2956.449335025657	1
0	14632	2956.779181018068	0
0	14671	2961.595697891936	1
0	14672	2962.172304766573	0
0	14916	3012.541121950791	1
0	14917	3012.574152836164	0
0	15091	3044.744449501889	1
0	15093	3044.890676280982	2
0	15094	3045.082715495961	1
0	15097	3045.534367146595	0
0	15151	3056.553743439544	1
0	15152	3057.087377443875	0
0	15326	3103.367528722097	1
0	15328	3103.420467560885	2
0	15329	3103.780673006272	1
0	15332	3103.788517140458	0
0	15341	3103.986568994113	1
0	15342	3104.47547864916	0
0	15451	3127.377822608368	1
0	15453	3127.779657271811	2
0	15454	3128.173854241111	1
0	15457	3128.281642709695	0
0	15471	3129.970075580488	1
0	15472	3130.106232094847	0
0	15476	3130.126699590583	1
0	15477	3130.492761245462	0
0	15481	3130.795016991051	1
0	15483	3131.369430802931	2
0	15484	3131.662196748573	1
0	15487	3131.672567263491	0
0	15521	3138.745468486676	1
0	15523	3138.864748922489	2
0	15524	3138.86946705339	1
0	15527	3138.977202014444	0
0	15536	3139.761980050941	1
0	15537	3139.92105082368	0
0	15601	3147.954951267847	1
0	15603	3148.132854868278	2
0	15605	3148.196114933856	3
0	15606	3148.386431166487	2
0	15610	3148.596348139564	3
0	15611	3149.154582402598	2
0	15614	3149.236543310283	1
0	15617	3149.845985007406	0
0	15691	3168.199091516127	1
0	15692	3168.321155991717	0
0	15696	3168.349876120183	1
0	15697	3168.405270327241	0
0	15701	3168.842352580304	1
0	15702	3168.860604047451	0
0	15726	3173.317451641432	1
0	15727	3173.525497077087	0
0	15736	3174.926406726861	1
0	15738	3175.008413981255	2
0	15739	3175.17094549434	1
0	15742	3175.371721851471	0
0	15746	3175.938272544836	1
0	15747	3176.206636409097	0
0	15751	3176.36304483643	1
0	15752	3176.848902216223	0
0	15836	3193.044659845085	1
0	15837	3193.056021331111	0
0	16136	3250.003094113617	1
0	16137	3250.222506685239	0
0	16186	3265.47249883623	1
0	16187	3265.873834757605	0
0	16281	3282.811569785482	1
0	16282	3282.931686408122	0
0	16306	3285.117662390808	1
0	16308	3285.425628844111	2
0	16309	3285.547232831728	1
0	16312	3285.640456360415	0
0	16351	3296.316372100989	1
0	16352	3296.817868799501	0
0	16366	3297.924882872914	1
0	16367	3298.633254493582	0
0	16686	3366.425653455225	1
0	16687	3366.632286640862	0
0	16701	3367.030232671231	1
0	16702	3367.479062679978	0
0	16741	3374.919181328176	1
0	16742	3375.096719468485	0
0	16761	3376.695210414439	1
0	16762	3376.719008580815	0
0	16806	3384.21310423513	1
0	16807	3384.396232819632	0
0	16811	3384.584953319082	1
0	16812	3385.025375638816	0
0	17056	3440.532899662569	1
0	17058	3441.340781742386	2
0	17060	3441.364181789099	3
0	17061	3441.694825611285	2
0	17064	3441.722186829198	1
0	17067	3441.743732950176	0
0	17081	3442.5794184529	1
0	17082	3442.62363755125	0
0	17086	3442.638061082244	1
0	17088	3442.663708729429	2
0	17089	3442.724775184305	1
0	17093	3443.00412373538	2
0	17094	3443.109168819144	1
0	17097	3443.163979554341	0
0	17101	3443.850778725844	1
0	17102	3444.480828955201	0
0	17146	3452.029752066589	1
0	17147	3452.203613127573	0
0	17421	3512.244113976535	1
0	17422	3512.449111291542	0
0	17741	3576.662922041257	1
0	17742	3576.789400866188	0
0	17781	3584.386684921514	1
0	17782	3584.858608842758	0
0	18011	3635.49043996064	1
0	18012	3635.887314605516	0
0	18241	3683.419070603441	1
0	18242	3683.565201502374	0
0	18351	3704.843987050091	1
0	18352	3705.325372570116	0
0	18456	3721.256377683075	1
0	18457	3721.377033862446	0
0	18461	3721.539607083337	1
0	18462	3721.650638319453	0
0	18466	3722.074335427353	1
0	18467	3722.119834115449	0
0	18496	3726.466309158055	1
0	18497	3726.579301857753	0
0	18551	3740.948388470409	1
0	18552	3741.095802559879	0
0	18761	3783.379283812255	1
0	18763	3783.718300905308	2
0	18765	3784.221131617605	3
0	18766	3784.286891123403	2
0	18770	3784.689006735233	3
0	18771	3784.943824221912	2
0	18774	3785.351921410457	1
0	18778	3785.394443579182	2
0	18779	3785.421896308768	1
0	18783	3785.786893754597	2
0	18784	3785.918929162204	1
0	18787	3786.115288985778	0
0	18941	3827.982734502273	1
0	18942	3828.211572670284	0
0	19061	3854.4740480379	1
0	19062	3854.476522826992	0
0	20001	4046.898367567772	1
0	20002	4047.072322415882	0
0	20111	4065.488355982492	1
0	20112	4065.724059762345	0
0	20181	4079.667366012281	1
0	20182	4079.741815705509	0
0	20186	4079.790277179574	1
0	20187	4079.798517838639	0
0	20341	4116.290159629164	1
0	20342	4116.593867989904	0
0	20481	4142.389753916367	1
0	20482	4142.451931804906	0
0	20576	4159.12068031016	1
0	20577	4159.334778092151	0
0	20701	4183.541652011415	1
0	20703	4183.752356405757	2
0	20705	4183.767850727122	3
0	20706	4184.387917053001	2
0	20709	4184.421308260283	1
0	20712	4185.459284509842	0
0	20771	4193.746037782626	1
0	20772	4193.768615007047	0
0	21101	4259.470707627408	1
0	21102	4259.522341614226	0
0	21131	4265.156850477986	1
0	21132	4265.413461926109	0
0	21136	4265.925156336101	1
0	21137	4266.198445544075	0
0	21206	4279.270256675365	1
0	21207	4279.6664945904	0
0	21276	4292.360252225682	1
0	21277	4292.49694068118	0
0	21346	4306.440722189598	1
0	21347	4306.915003494774	0
0	21581	4352.385143726478	1
0	21582	4352.513256612297	0
0	21706	4382.080499332462	1
0	21707	4382.229736554504	0
0	21941	4424.564836354137	1
0	21942	4424.583150412463	0
0	21946	4424.708464644226	1
0	21947	4424.955459210015	0
0	21951	4425.185777614303	1
0	21952	4425.222673128621	0
0	22226	4483.564587080607	1
0	22227	4483.857484443634	0
0	22281	4498.684051882516	1
0	22283	4498.889696581227	2
0	22284	4499.178424656	1
0	22287	4499.618247236619	0
0	22701	4584.525780310643	1
0	22703	4584.527101275672	2
0	22704	4584.771577562489	1
0	22707	4585.112027485416	0
0	22896	4621.790735085614	1
0	22897	4621.98138536375	0
0	22971	4635.674400631667	1
0	22972	4635.952631006451	0
0	23151	4673.060524114706	1
0	23153	4673.063620529056	2
0	23154	4673.540355478761	1
0	23157	4673.55413251602	0
0	23161	4673.815735580684	1
0	23162	4674.581648752989	0
0	23171	4674.89023106165	1
0	23172	4674.912607465763	0
0	23176	4674.997007360855	1
0	23177	4675.154705376859	0
0	23211	4680.092344321583	1
0	23212	4680.222190949378	0
0	23251	4689.077509239895	1
0	23252	4689.346433715024	0
0	23321	4704.785684475129	1
0	23322	4705.064704719883	0
0	23491	4743.933465329698	1
0	23492	4743.933586611698	0
0	23521	4749.487950273492	1
0	23522	4749.628052496054	0
0	23526	4749.762878183672	1
0	23527	4749.883250476757	0
0	23626	4768.288604634111	1
0	23627	4768.527240487145	0
0	23866	4811.452596334717	1
0	23867	4811.481387678948	0
0	23871	4811.549598054257	1
0	23873	4811.906808875151	2
0	23875	4811.98426252622	3
0	23876	4812.036230025931	2
0	23879	4812.390988861092	1
0	23882	4812.549411855301	0
0	24046	4841.105879096375	1
0	24047	4841.247680771668	0
0	24051	4841.372196747267	1
0	24053	4841.856173587864	2
0	24055	4841.920772550186	3
0	24056	4842.099748131201	2
0	24059	4842.404754190688	1
0	24063	4842.546156608725	2
0	24064	4842.779913815335	1
0	24067	4843.186242575872	0
0	24196	4864.702105143658	1
0	24198	4864.815390090282	2
0	24199	4864.825592322852	1
0	24202	4864.900327067152	0
0	24386	4906.255275980644	1
0	24388	4907.198382664657	2
0	24389	4907.248423711217	1
0	24392	4907.336431863682	0
0	24431	4914.119723167391	1
0	24432	4914.442531582228	0
0	24706	4980.429176287997	1
0	24707	4981.021170811836	0
0	25281	5111.127320731805	1
0	25282	5111.326893266744	0
0	25426	5155.248021631731	1
0	25427	5155.298404377412	0
0	25431	5155.618248204245	1
0	25432	5155.703699093066	0
0	26026	5295.360017918036	1
0	26027	5295.36751276705	0
0	26206	5334.402326393869	1
0	26207	5334.711518991809	0
0	26211	5335.056687078532	1
0	26212	5335.259671553551	0
0	26256	5344.172919904905	1
0	26257	5344.332010224517	0
0	26361	5361.888573138199	1
0	26362	5362.450647371428	0
0	26391	5368.734294997496	1
0	26392	5370.512968860692	0
0	26401	5371.102277664673	1
0	26402	5371.235053370253	0
0	26406	5371.633070061632	1
0	26407	5371.930830373714	0
0	26411	5372.24984583644	1
0	26412	5372.366740893728	0
0	26416	5372.382655087963	1
0	26417	5372.676704632504	0
0	26476	5385.106180897673	1
0	26477	5385.308958527975	0
0	26496	5387.157141609735	1
0	26497	5387.194780098363	0
0	26501	5387.356256009509	1
0	26502	5387.448427177186	0
0	26526	5390.393033912903	1
0	26527	5390.91939254213	0
0	26536	5391.933662610519	1
0	26537	5392.022599469955	0
0	26616	5414.856667345774	1
0	26617	5414.97501601554	0
0	27221	5562.489485451922	1
0	27222	5562.585524448745	0
0	27241	5564.254958218579	1
0	27242	5564.286181692236	0
0	27256	5565.775709870679	1
0	27258	5566.303419165135	2
0	27259	5566.327923123535	1
0	27262	5566.605821244727	0
0	27306	5575.055252804349	1
0	27307	5575.077402776043	0
0	27371	5588.492539979683	1
0	27372	5589.07847085012	0
0	27521	5620.34217307951	1
0	27522	5620.664658870838	0
0	27661	5645.242126508082	1
0	27662	5645.387408086027	0
0	27686	5649.467043142997	1
0	27687	5649.491063983596	0
0	27811	5671.459020444128	1
0	27812	5671.465223816519	0
0	27991	5708.768065627773	1
0	27992	5708.770079505907	0
0	27996	5708.834988988433	1
0	27997	5709.095739403494	0
0	28051	5723.845287642406	1
0	28053	5723.902172610077	2
0	28054	5724.047987397086	1
0	28058	5724.090461575741	2
0	28059	5724.49843380569	1
0	28062	5724.604457078991	0
0	28241	5769.668868432757	1
0	28242	5769.768370361786	0
0	28281	5781.178086706673	1
0	28282	5781.400591572154	0
0	28286	5781.65383954126	1
0	28287	5781.74156802921	0
0	28311	5788.260940960992	1
0	28312	5788.327754823321	0
0	28446	5820.821879998462	1
0	28447	5821.834806207945	0
0	28481	5825.197812251781	1
0	28482	5825.775765067086	0
0	28706	5869.572307018305	1
0	28708	5870.516742620567	2
0	28710	5870.577877806024	3
0	28712	5870.855448870418	4
0	28714	5870.916178463881	5
0	28716	5871.183094412921	6
0	28717	5871.339218316479	5
0	28720	5871.393899780257	4
0	28723	5872.892656467398	3
0	28727	5872.916040597192	4
0	28728	5873.167053964564	3
0	28732	5873.200975497576	4
0	28734	5873.484460951716	5
0	28735	5873.885489230414	4
0	28738	5874.134321073478	3
0	28742	5874.442989574052	4
0	28743	5874.525389672101	3
0	28746	5876.3764415252	2
0	28750	5877.318320608299	3
0	28751	5877.359637650615	2
0	28754	5877.404182838954	1
0	28757	5877.522808262885	0
0	28771	5878.074078618998	1
0	28773	5878.075026377637	2
0	28774	5878.92846759573	1
0	28777	5879.146586674686	0
0	28971	5923.518832536357	1
0	28972	5923.607312435123	0
0	29006	5928.097518751083	1
0	29007	5928.552496588531	0
0	29011	5928.880905494752	1
0	29012	5929.135668391129	0
0	29351	6002.535776701289	1
0	29352	6003.140511808618	0
0	29391	6008.761267791677	1
0	29392	6009.733035610239	0
0	29411	6012.185587969309	1
0	29412	6012.263400926855	0
0	29611	6053.71577285089	1
0	29612	6054.01532022653	0
0	29621	6056.095681176116	1
0	29622	6056.336643171515	0
0	29626	6056.453090859231	1
0	29628	6056.530177652002	2
0	29629	6056.642262244704	1
0	29632	6056.886180040178	0
0	29956	6124.056641378621	1
0	29957	6124.107115439831	0
0	30046	6140.97731425375	1
0	30048	6141.066533009334	2
0	30049	6141.282420957658	1
0	30052	6142.142697811875	0
0	30261	6203.659414964428	1
0	30262	6203.711510499	0
0	30266	6203.92720956283	1
0	30268	6204.232290390964	2
0	30269	6204.34638314958	1
0	30272	6204.636558377703	0
0	30436	6235.04159507227	1
0	30437	6235.48996384456	0
0	30441	6235.50549176574	1
0	30442	6235.75182319478	0
0	30471	6238.233507559238	1
0	30472	6238.714122581564	0
0	30536	6246.600670933011	1
0	30537	6246.691210879024	0
0	30551	6247.89997449584	1
0	30552	6247.977914690289	0
0	30691	6278.303609197688	1
0	30693	6278.517094554976	2
0	30695	6278.668411971621	3
0	30697	6278.926485828149	4
0	30698	6279.060860505572	3
0	30702	6279.114803013542	4
0	30703	6279.205836947231	3
0	30706	6279.537991397221	2
0	30709	6279.952523162118	1
0	30712	6279.976038607936	0
0	30731	6283.202545547458	1
0	30732	6284.012238295006	0
0	30916	6332.700166048018	1
0	30917	6332.760655380115	0
0	30961	6339.769606891379	1
0	30962	6340.592956648154	0
0	30966	6340.611672573975	1
0	30968	6340.795624380178	2
0	30969	6341.21367824442	1
0	30973	6341.786404467752	2
0	30975	6342.041110517489	3
0	30976	6342.619864542443	2
0	30980	6342.686118424113	3
0	30981	6342.92191926395	2
0	30985	6342.923709634262	3
0	30986	6342.977221179769	2
0	30989	6343.759856827411	1
0	30992	6343.793244069041	0
0	31076	6352.822338893508	1
0	31077	6353.190622492152	0
0	31096	6356.483485670166	1
0	31097	6356.594904113826	0
0	31171	6370.811293169017	1
0	31173	6371.430587609674	2
0	31174	6371.627017033218	1
0	31177	6371.797859426923	0
0	31181	6372.206454988256	1
0	31183	6372.404003379319	2
0	31184	6372.423891689192	1
0	31188	6372.786949751642	2
0	31189	6372.95678436067	1
0	31192	6373.299132691357	0
0	31201	6373.839468278304	1
0	31202	6373.963329443288	0
0	31206	6374.016826631816	1
0	31207	6374.148132422401	0
0	31211	6374.592763402687	1
0	31212	6374.634146457591	0
0	31361	6402.049371323794	1
0	31362	6402.376588034883	0
0	31366	6402.465517308328	1
0	31367	6402.932518230647	0
0	31376	6403.249431640067	1
0	31378	6403.345766011109	2
0	31379	6403.467061269749	1
0	31382	6404.293047128363	0
0	31386	6405.089777680311	1
0	31387	6405.826581673386	0
0	31531	6435.13685713493	1
0	31532	6435.176993547017	0
0	31541	6436.33660171976	1
0	31542	6436.611553249471	0
0	31766	6481.596976974222	1
0	31767	6481.901923476529	0
0	31806	6487.820887438392	1
0	31807	6487.894497202601	0
0	31891	6498.821576067509	1
0	31892	6498.835418442307	0
0	31946	6509.319870556932	1
0	31948	6509.52537052069	2
0	31949	6509.762194361298	1
0	31952	6510.065826864256	0
0	32091	6533.611519464655	1
0	32092	6533.855343384835	0
0	32116	6538.15968315349	1
0	32117	6538.387623380788	0
0	32121	6538.434224965662	1
0	32122	6538.692299482986	0
0	32146	6541.771640443713	1
0	32147	6542.029931707577	0
0	32246	6559.77553388792	1
0	32247	6559.828490659871	0
0	32301	6569.842273688986	1
0	32302	6570.344373441734	0
0	32366	6583.508244110318	1
0	32368	6583.792209280519	2
0	32370	6584.242858980823	3
0	32371	6584.283094411674	2
0	32375	6584.426183780999	3
0	32376	6584.638375477504	2
0	32379	6584.949391085025	1
0	32382	6585.421146009798	0
0	32386	6585.943180969726	1
0	32387	6586.302620374202	0
0	32391	6587.07441785191	1
0	32392	6587.195604466431	0
0	32521	6608.304309801017	1
0	32522	6608.600227824997	0
0	32631	6626.702811216282	1
0	32633	6626.911507719938	2
0	32635	6627.064227472653	3
0	32636	6627.361073292884	2
0	32639	6627.487959463629	1
0	32642	6627.602688352045	0
0	32741	6641.497398812433	1
0	32742	6641.592535488285	0
0	32761	6643.407151182781	1
0	32763	6643.435124305397	2
0	32764	6643.772078885119	1
0	32767	6643.913028285168	0
0	32771	6643.944176046598	1
0	32773	6644.315655976857	2
0	32774	6644.381735902784	1
0	32777	6644.496057638707	0
0	32781	6644.734351313064	1
0	32782	6644.761767416384	0
0	32936	6673.287021134409	1
0	32937	6673.482494501143	0
0	33041	6694.1929366396	1
0	33042	6694.416495342087	0
0	33046	6694.730934256819	1
0	33047	6694.86370262448	0
0	33221	6733.95102441385	1
0	33223	6734.068727775502	2
0	33224	6734.127636632762	1
0	33228	6734.178651408755	2
0	33229	6734.184116621257	1
0	33232	6734.667686045553	0
0	33341	6753.802111431951	1
0	33342	6753.889301858588	0
0	33391	6760.99140778639	1
0	33393	6761.117948672865	2
0	33394	6761.211150946874	1
0	33397	6761.383182219882	0
0	33486	6775.902258525942	1
0	33487	6776.052865508702	0
0	33571	6791.426744206809	1
0	33573	6791.599803285046	2
0	33574	6791.754685911841	1
0	33577	6791.840517529651	0
0	33676	6805.33091875584	1
0	33677	6805.699112449826	0
0	33696	6806.890531828352	1
0	33697	6806.935779551538	0
0	33751	6817.560535012082	1
0	33752	6817.730245588921	0
0	33821	6831.460612857777	1
0	33822	6831.487716941185	0
0	34051	6881.826238988663	1
0	34052	6881.89419571105	0
0	34056	6882.087757553776	1
0	34057	6882.184021966901	0
0	34096	6889.661310136414	1
0	34097	6889.977672977346	0
0	34381	6947.163838822642	1
0	34383	6947.176882549644	2
0	34385	6947.419542258366	3
0	34386	6947.471935551422	2
0	34390	6948.172802007783	3
0	34391	6948.531063694069	2
0	34394	6948.877036849565	1
0	34397	6949.140730392004	0
0	34411	6951.414001797522	1
0	34412	6951.444692313782	0
0	34436	6957.256196789211	1
0	34437	6957.358662976811	0
0	34536	6982.934162428784	1
0	34538	6982.940145187186	2
0	34539	6983.18559036699	1
0	34542	6983.425807694291	0
0	34561	6986.406340277177	1
0	34562	6986.423128126532	0
0	34566	6986.454034518815	1
0	34567	6986.696411918514	0
0	34616	6992.198595047835	1
0	34617	6992.302559146794	0
0	34621	6992.357690785903	1
0	34622	6992.395553984389	0
0	34936	7050.336312024274	1
0	34938	7050.380856630289	2
0	34939	7050.550985925781	1
0	34942	7050.576291362439	0
0	34976	7057.697122478184	1
0	34978	7057.711524645243	2
0	34979	7057.956919986779	1
0	34982	7057.962739689496	0
0	35021	7065.908581118441	1
0	35022	7066.046837062022	0
0	35026	7066.355955639506	1
0	35027	7066.468615623106	0
0	35306	7143.171665447542	1
0	35307	7143.492431560099	0
0	35331	7146.521901399901	1
0	35332	7146.570696252646	0
0	35336	7146.574725255777	1
0	35337	7147.114832568325	0
0	35341	7147.226804397441	1
0	35342	7147.675222645191	0
0	35651	7202.368062769281	1
0	35653	7202.532515090042	2
0	35654	7203.225339783214	1
0	35657	7203.282891800575	0
0	35661	7203.518995238497	1
0	35663	7204.078444761399	2
0	35664	7204.73776487541	1
0	35667	7205.051279988553	0
0	35671	7205.231181738579	1
0	35672	7205.755670796997	0
0	35681	7206.227116507735	1
0	35682	7206.278584023798	0
0	35686	7206.420891750452	1
0	35687	7206.990273995484	0
0	35731	7214.534939181235	1
0	35732	7214.808201140108	0
0	35736	7214.954774749028	1
0	35737	7215.016305371562	0
0	35781	7225.492166667837	1
0	35783	7225.730251121663	2
0	35785	7225.764113310833	3
0	35786	7225.899430565057	2
0	35789	7225.984186530869	1
0	35792	7226.169843987197	0
0	35801	7226.987595304254	1
0	35802	7227.814147918923	0
0	35866	7240.896020614024	1
0	35867	7241.417361043526	0
0	36016	7277.572735529083	1
0	36017	7277.844105391346	0
0	36021	7278.647507639583	1
0	36022	7278.930689051401	0
0	36091	7291.839329363985	1
0	36092	7291.896602583405	0
0	36101	7292.64879596721	1
0	36102	7292.666684251868	0
0	36316	7336.981619983478	1
0	36317	7337.1152586292	0
0	36431	7359.987895285061	1
0	36432	7360.012074887724	0
0	36511	7373.392682420296	1
0	36512	7373.867798466361	0
0	36516	7374.004154170764	1
0	36517	7374.328649372782	0
0	36631	7398.810839814028	1
0	36632	7399.036029439876	0
0	36681	7406.07023208755	1
0	36682	7406.117276943487	0
0	36686	7406.641055547811	1
0	36687	7407.561198212021	0
0	36731	7413.525774395372	1
0	36733	7413.552985958228	2
0	36734	7413.609776262703	1
0	36738	7413.710102001727	2
0	36739	7413.735838185654	1
0	36742	7413.769610819934	0
0	36746	7413.898016480712	1
0	36748	7413.999011575984	2
0	36749	7414.14544998792	1
0	36752	7414.371917866135	0
0	36796	7423.786950072539	1
0	36797	7424.311036352533	0
0	36856	7438.416710333263	1
0	36857	7438.486020220648	0
0	36871	7440.053884439795	1
0	36872	7440.311311795983	0
0	36891	7444.506636053284	1
0	36892	7444.54199890758	0
0	36916	7447.660217592707	1
0	36917	7447.752539489849	0
0	36931	7448.491129481473	1
0	36933	7448.571377723396	2
0	36934	7448.655380107647	1
0	36938	7449.045578225474	2
0	36939	7449.168634038759	1
0	36943	7449.29360956349	2
0	36944	7449.302085879287	1
0	36947	7449.322299937895	0
0	36981	7457.629412399649	1
0	36982	7457.700434846868	0
0	36986	7458.220697307311	1
0	36988	7458.462367496354	2
0	36989	7458.898017842953	1
0	36992	7458.94554395081	0
0	37041	7466.999946182174	1
0	37042	7467.076021656272	0
0	37046	7467.12861673876	1
0	37047	7467.153578070458	0
0	37076	7472.813973596871	1
0	37078	7472.91479990254	2
0	37079	7473.152042569273	1
0	37083	7473.186509030476	2
0	37085	7473.289207007672	3
0	37086	7473.314105181904	2
0	37089	7473.994651997116	1
0	37092	7474.094978497248	0
0	37146	7483.877046212903	1
0	37147	7484.842091761368	0
0	37151	7485.044247919436	1
0	37152	7485.354052860302	0
0	37191	7495.277993204839	1
0	37192	7495.460924456642	0
0	37196	7495.655766266014	1
0	37197	7496.27242800208	0
0	37551	7567.190492390534	1
0	37553	7567.633076301256	2
0	37555	7567.687036747631	3
0	37556	7567.802768463143	2
0	37559	7567.855729156663	1
0	37562	7568.556228052969	0
0	37581	7573.15909701202	1
0	37583	7573.313703431086	2
0	37584	7573.753039141478	1
0	37587	7573.832328179276	0
0	37671	7592.223859991612	1
0	37673	7592.374899549822	2
0	37674	7592.449955287022	1
0	37678	7592.569718861572	2
0	37679	7592.788429822202	1
0	37682	7592.804979890344	0
0	37761	7609.674001781457	1
0	37762	7609.794885421344	0
0	37966	7650.744696156538	1
0	37967	7650.914328903722	0
0	38126	7694.013117459403	1
0	38127	7694.594388827094	0
0	38131	7694.872750177451	1
0	38132	7694.999375755629	0
0	38136	7695.430645527315	1
0	38137	7695.444480191931	0
0	38141	7695.456057415866	1
0	38143	7695.556749153976	2
0	38144	7696.745128399744	1
0	38147	7697.366806582287	0
0	38201	7704.535346668944	1
0	38202	7704.854161186766	0
0	38281	7718.183679089151	1
0	38282	7718.253433017402	0
0	38286	7718.349279544565	1
0	38288	7718.498072423018	2
0	38289	7718.626155338077	1
0	38292	7718.782777024419	0
0	38491	7762.107897605606	1
0	38492	7762.772598262352	0
0	38496	7762.943748706696	1
0	38498	7763.239939304414	2
0	38499	7764.19065000872	1
0	38503	7764.392464901355	2
0	38504	7764.72456583095	1
0	38508	7764.825193546788	2
0	38510	7764.908205299091	3
0	38511	7765.161254299757	2
0	38514	7765.193954044997	1
0	38518	7765.213299694136	2
0	38520	7765.812158187615	3
0	38521	7765.863528159173	2
0	38525	7766.256806396445	3
0	38527	7766.447694387799	4
0	38528	7766.478854937714	3
0	38531	7766.674321988104	2
0	38534	7766.704701837601	1
0	38537	7766.710968578959	0
0	38631	7792.548965412831	1
0	38633	7792.611143576702	2
0	38635	7792.774867123555	3
0	38637	7792.989669077382	4
0	38638	7793.311471252053	3
0	38641	7793.745369948611	2
0	38644	7793.790383386122	1
0	38647	7794.291176695037	0
0	38651	7794.57029447794	1
0	38652	7794.72288264519	0
0	38656	7795.057241060706	1
0	38657	7795.356427931256	0
0	39166	7896.221559642391	1
0	39168	7897.441728047795	2
0	39169	7897.583240172011	1
0	39172	7897.744580091769	0
0	39321	7927.558171058188	1
0	39322	7927.877152172775	0
0	39576	7991.64431463889	1
0	39578	7991.832038574865	2
0	39580	7991.911683482041	3
0	39581	7992.107978976394	2
0	39584	7993.626632511485	1
0	39588	7993.86042031211	2
0	39589	7993.881336201682	1
0	39592	7994.054589078365	0
0	39601	7994.612866006094	1
0	39602	7994.7357273826	0
0	39936	8057.234406418841	1
0	39937	8057.247566350429	0
0	39941	8057.405706270442	1
0	39942	8057.754306868633	0
0	39981	8063.573028552122	1
0	39982	8063.915344436234	0
0	39986	8063.922965912834	1
0	39987	8064.045074959847	0
0	40031	8071.104439707495	1
0	40032	8071.18674185996	0
0	40036	8071.439058294042	1
0	40037	8071.463743531752	0
0	40116	8082.319490499941	1
0	40117	8082.885246163754	0
0	40201	8100.968371866023	1
0	40202	8101.063833503373	0
0	40211	8101.360938028692	1
0	40212	8101.37360420877	0
0	40651	8213.126125227555	1
0	40652	8213.755387804502	0
0	40826	8247.198031996667	1
0	40827	8247.38556879316	0
0	40831	8247.530883919705	1
0	40832	8248.286188744212	0
0	40856	8251.605368123618	1
0	40857	8251.685182817192	0
0	40861	8251.880479429214	1
0	40863	8251.904156378654	2
0	40864	8251.943610202847	1
0	40867	8252.444857920998	0
0	41196	8315.207344203044	1
0	41197	8315.406893415434	0
0	41201	8315.434363082914	1
0	41202	8315.594654895994	0
0	41206	8315.735740199171	1
0	41208	8315.847292735831	2
0	41209	8315.998774273453	1
0	41212	8316.158194917055	0
0	41216	8316.482556621545	1
0	41217	8316.545551357173	0
0	41541	8389.330638904954	1
0	41543	8389.406283432464	2
0	41545	8389.432416427005	3
0	41546	8389.637981567815	2
0	41549	8389.954522059015	1
0	41552	8390.330027234153	0
0	41686	8415.01226141771	1
0	41687	8415.015776241025	0
0	41691	8415.324718610517	1
0	41692	8415.531123130889	0
0	42006	8485.217658056931	1
0	42007	8485.535060948877	0
0	42166	8509.886516044981	1
0	42167	8510.275995422756	0
0	42211	8517.00289797658	1
0	42212	8517.059957587788	0
0	42216	8517.06870322609	1
0	42217	8517.363797748091	0
0	42266	8526.08153975583	1
0	42267	8526.127268187691	0
0	42271	8526.160748908208	1
0	42272	8526.540670212528	0
0	42351	8542.642021113607	1
0	42353	8543.293386032176	2
0	42354	8543.379423564575	1
0	42357	8543.384562120923	0
0	42416	8552.53225307691	1
0	42417	8552.535667337085	0
0	42786	8606.375682254167	1
0	42788	8606.490149644404	2
0	42789	8606.765007110931	1
0	42792	8606.951740350715	0
0	42936	8637.763253106614	1
0	42937	8637.885657083923	0
0	43066	8666.871797122233	1
0	43068	8667.05909929551	2
0	43069	8667.540510958599	1
0	43072	8667.610983341607	0
0	43101	8671.066076066045	1
0	43103	8671.459161482044	2
0	43104	8671.577903058381	1
0	43107	8671.757284736098	0
0	43131	8673.975752762263	1
0	43132	8673.999589638568	0
0	43136	8674.156515777239	1
0	43137	8674.263175554984	0
0	43166	8679.08102642967	1
0	43167	8679.252260332483	0
0	43341	8728.78150782563	1
0	43343	8728.942036415103	2
0	43344	8729.009265261609	1
0	43347	8729.353792968954	0
0	43516	8762.413448049649	1
0	43517	8762.551185279911	0
0	43561	8771.900862838165	1
0	43562	8772.57007006743	0
0	43571	8773.282116265084	1
0	43572	8773.305858786305	0
0	43591	8774.217190951128	1
0	43592	8774.327836101529	0
0	43596	8774.342954052542	1
0	43597	8774.780816318815	0
0	43681	8789.295496850216	1
0	43682	8789.353290087071	0
0	43691	8789.532173059266	1
0	43692	8790.382600733059	0
0	43741	8799.77912176438	1
0	43743	8799.894244507327	2
0	43745	8800.108843977018	3
0	43746	8800.183729967652	2
0	43749	8800.558666159376	1
0	43753	8800.650594214702	2
0	43754	8800.704607745472	1
0	43758	8800.729962094963	2
0	43759	8800.810645220788	1
0	43762	8801.287396798509	0
0	43826	8808.011580702065	1
0	43827	8808.023718470606	0
0	44026	8846.731401940831	1
0	44028	8846.943325165794	2
0	44030	8846.975149420417	3
0	44031	8847.121458864133	2
0	44034	8847.525350846366	1
0	44037	8847.870164587294	0
0	44041	8848.054970829401	1
0	44043	8848.097359282351	2
0	44044	8848.474139392815	1
0	44047	8848.486710315822	0
0	44056	8849.07161059324	1
0	44058	8849.346498672763	2
0	44059	8849.818592433996	1
0	44062	8850.056154705877	0
0	44066	8850.186360238302	1
0	44067	8850.309936377052	0
0	44071	8850.632396065452	1
0	44073	8850.767291234229	2
0	44074	8850.849461532548	1
0	44077	8851.122212383276	0
0	44221	8882.092318472303	1
0	44222	8882.167392195935	0
0	44226	8882.266270808891	1
0	44227	8882.292727316646	0
0	44231	8882.3261594661	1
0	44232	8883.01864032725	0
0	44271	8889.216311698803	1
0	44272	8889.818689373055	0
0	44371	8908.086275967699	1
0	44372	8908.510128902889	0
0	44601	8946.085096810442	1
0	44602	8946.674998261999	0
0	44606	8946.70870787527	1
0	44607	8947.779121125058	0
0	44611	8947.894529586979	1
0	44612	8948.019189549362	0
0	44656	8956.164434918258	1
0	44657	8956.542652172555	0
0	44661	8957.071671239356	1
0	44663	8957.321458907708	2
0	44664	8957.337900245536	1
0	44668	8957.510186545195	2
0	44669	8957.910718289144	1
0	44672	8958.251740157339	0
0	44701	8963.577635323398	1
0	44702	8964.210690819417	0
0	44751	8969.244956192073	1
0	44752	8969.279363811761	0
0	44881	8997.050216372727	1
0	44883	8997.335166070965	2
0	44885	8997.433307234167	3
0	44886	8997.595641072643	2
0	44889	8997.713774375911	1
0	44893	8997.930428196818	2
0	44894	8998.037291666015	1
0	44897	8998.2868424189	0
0	44901	8998.384425330462	1
0	44902	8999.477646675742	0
0	44906	9000.457518971434	1
0	44907	9000.610258997683	0
0	44946	9008.126773296334	1
0	44947	9008.321471604223	0
0	45036	9022.415499858732	1
0	45037	9022.63183587595	0
0	45041	9022.680056209867	1
0	45042	9022.957071136925	0
0	45061	9024.507004814016	1
0	45062	9025.274579811102	0
0	45171	9043.378471341064	1
0	45173	9043.45265491683	2
0	45174	9043.8678694204	1
0	45177	9044.2544757837	0
0	45241	9055.487571693738	1
0	45243	9055.611748667501	2
0	45244	9055.664750804699	1
0	45247	9056.274262729677	0
0	45356	9076.399401417862	1
0	45358	9076.524204594372	2
0	45359	9076.617126872568	1
0	45363	9076.642993384495	2
0	45365	9077.420707417283	3
0	45366	9078.111181071606	2
0	45369	9078.132941793653	1
0	45373	9078.21278398314	2
0	45374	9078.344658895447	1
0	45377	9078.348836345197	0
0	45381	9078.407787990554	1
0	45382	9078.482799726852	0
0	45471	9094.15129219757	1
0	45473	9094.245196308537	2
0	45474	9094.34992005033	1
0	45477	9094.592927364554	0
0	45646	9124.500940380896	1
0	45648	9124.509455625172	2
0	45649	9124.800759537641	1
0	45653	9125.057778387806	2
0	45654	9125.255666597795	1
0	45658	9125.330975072465	2
0	45660	9125.337674693382	3
0	45661	9125.471190683659	2
0	45664	9125.47772893537	1
0	45668	9125.502113903	2
0	45669	9125.793610371667	1
0	45672	9125.830748374938	0
0	45721	9142.080878036719	1
0	45722	9142.238141519025	0
0	45851	9170.207430640273	1
0	45853	9170.457673488554	2
0	45855	9171.319886249474	3
0	45857	9171.458761755245	4
0	45858	9171.477991301033	3
0	45861	9171.633493229861	2
0	45864	9171.832944763718	1
0	45867	9171.914473750986	0
0	45916	9182.745859347268	1
0	45917	9182.86096559558	0
0	45931	9184.003455200085	1
0	45932	9184.349940692647	0
0	45936	9184.478308077196	1
0	45937	9184.62283918564	0
0	45941	9185.026614062112	1
0	45942	9185.432357780401	0
0	45946	9185.47096025477	1
0	45947	9185.646752905709	0
0	46091	9215.392159480792	1
0	46092	9215.66403961621	0
0	46611	9326.744263465642	1
0	46612	9326.76810685738	0
0	46616	9326.805361056937	1
0	46617	9327.104021086118	0
0	46626	9327.773550880034	1
0	46627	9327.784210223288	0
0	46676	9336.279958464944	1
0	46677	9336.773854121957	0
0	46716	9344.281125810327	1
0	46717	9344.425122843849	0
0	46721	9344.683681008764	1
0	46722	9345.004552833894	0
0	46771	9356.848010058703	1
0	46772	9357.03416306522	0
0	46776	9357.061299690154	1
0	46778	9357.299178742293	2
0	46779	9357.438408672735	1
0	46782	9357.5627076047	0
0	46791	9358.489665818706	1
0	46793	9358.508044372354	2
0	46794	9358.566497392338	1
0	46798	9358.633083879138	2
0	46799	9358.649339875489	1
0	46802	9358.899429646039	0
0	46811	9359.417191424657	1
0	46812	9360.069185492708	0
0	46816	9360.220470458331	1
0	46817	9360.301293045396	0
0	46821	9360.324563794811	1
0	46823	9360.388903239116	2
0	46824	9360.555983749829	1
0	46827	9360.594477892863	0
0	46856	9363.657427245226	1
0	46857	9364.065639106203	0
0	47011	9394.084026803406	1
0	47012	9394.195347360877	0
0	47031	9396.588115594768	1
0	47032	9397.346540674854	0
0	47121	9413.68041147032	1
0	47122	9415.116155314191	0
0	47126	9415.262338931642	1
0	47128	9415.266940274158	2
0	47129	9415.301680178086	1
0	47132	9415.483786055397	0
0	47136	9415.713523189827	1
0	47137	9415.96280969984	0
0	47381	9480.460609291126	1
0	47382	9480.504542129183	0
0	47681	9545.647378594167	1
0	47682	9545.955609585192	0
0	47746	9557.684225832573	1
0	47748	9557.730509805531	2
0	47750	9558.248980416863	3
0	47752	9558.44719066201	4
0	47754	9558.743408703691	5
0	47755	9558.898697812687	4
0	47758	9559.343163044849	3
0	47761	9559.461547846321	2
0	47764	9559.62884509149	1
0	47767	9559.851619143595	0
0	47871	9576.956860428782	1
0	47872	9577.376140621672	0
0	48146	9630.29565377162	1
0	48148	9630.771330540689	2
0	48149	9630.904629206633	1
0	48153	9630.987099424344	2
0	48154	9631.781368979111	1
0	48157	9631.811480770177	0
0	48271	9659.839497636741	1
0	48272	9659.865170395745	0
0	48521	9698.287563526642	1
0	48522	9698.329352603978	0
0	48676	9732.559620603101	1
0	48678	9732.658516571913	2
0	48679	9732.668945640252	1
0	48682	9732.872340254711	0
0	48686	9734.440446686025	1
0	48687	9734.455326465704	0
0	48691	9734.472569380642	1
0	48692	9734.590559848059	0
0	48706	9736.50358346604	1
0	48707	9736.77051712313	0
0	48826	9762.393262486085	1
0	48827	9762.669472050805	0
0	48831	9762.889740230122	1
0	48832	9763.499624126414	0
0	48836	9763.654873895141	1
0	48837	9763.713087063153	0
0	48841	9764.265659469158	1
0	48843	9764.322113547525	2
0	48844	9764.411305966625	1
0	48847	9764.420625685306	0
0	48921	9777.932426524714	1
0	48922	9778.313735493089	0
0	48926	9778.41933451289	1
0	48927	9778.49237637322	0
0	48946	9781.426708603895	1
0	48948	9781.57993807887	2
0	48950	9781.672781052326	3
0	48952	9781.67611126975	4
0	48953	9781.751163114381	3
0	48956	9781.810640087448	2
0	48959	9782.04333807057	1
0	48962	9782.349459544265	0
0	49066	9801.305982628433	1
0	49067	9802.083580706188	0
0	49126	9814.913235205999	1
0	49127	9814.997810272814	0
0	49131	9815.269028522058	1
0	49132	9815.505177957462	0
0	49151	9817.236146253888	1
0	49152	9818.095794418487	0
0	49156	9818.177365306591	1
0	49157	9818.314512336968	0
0	49161	9818.477852117805	1
0	49162	9818.942816125277	0
0	49251	9834.710303513742	1
0	49252	9835.533435985692	0
0	49416	9872.664957014989	1
0	49417	9872.973582635351	0
0	49421	9873.029894027801	1
0	49422	9873.160180755818	0
0	49426	9873.604284949102	1
0	49427	9873.956160216722	0
0	49431	9874.548893020008	1
0	49432	9874.579322581786	0
0	49436	9874.707225484011	1
0	49437	9875.116208182492	0
0	49441	9875.799171453279	1
0	49443	9875.945143858231	2
0	49444	9875.982137278536	1
0	49448	9876.504698576961	2
0	49449	9876.85963197901	1
0	49453	9876.988355937423	2
0	49454	9877.146532663594	1
0	49457	9877.167277963932	0
0	49476	9881.499384477787	1
0	49477	9881.699520818481	0
0	49481	9881.824046453897	1
0	49482	9881.908943173591	0
0	49501	9884.585573205747	1
0	49502	9884.66313564104	0
0	49586	9900.564609226427	1
0	49587	9901.138377057784	0
0	49771	9933.293558402045	1
0	49772	9933.422708621577	0
0	49921	9959.811932835236	1
0	49922	9960.043137750058	0
0	49931	9960.750955711254	1
0	49933	9961.441654935405	2
0	49934	9961.649557250715	1
0	49937	9961.775070957243	0
0	49946	9962.189407262528	1
0	49948	9962.665373994957	2
0	49950	9962.881798775941	3
0	49951	9963.155013752873	2
0	49954	9963.276093568079	1
0	49957	9963.374543174225	0
1	8	2.051805262613	1.255930758047
1	10	2.617658024521	0.923223131471
1	15	4.341240245107	0.787201139982
1	20	6.056632927679	0.55104848667
1	28	8.422707795876	1.038159300664
1	33	8.937074118488	0.575519196883
1	43	9.741828998506	0.483602104948
1	48	11.070207507363	2.223524422036
1	51	11.310725116129	1.734142081729
1	53	11.822881620676	1.596852238025
1	58	12.514754504393	3.314912279928
1	63	12.737673435876	0.8394328529
1	68	13.124680514678	0.073685355465
1	73	14.950525449612	0.091161026124
1	75	15.150377236046	2.598254085849
1	80	15.29136800813	0.020425588399
1	88	18.103042591478	1.787487663439
1	90	18.280587323931	1.505784258637
1	98	21.965287251912	2.040314257942
1	106	23.377734695852	0.618929459627
1	108	23.722335620609	1.605239557062
1	110	23.921425716777	3.845221869142
1	118	25.233646141746	0.125874409438
1	120	25.889343285108	1.51653597399
1	125	27.265142548367	1.021431874349
1	130	27.673668056742	0.1547296805
1	138	29.899921521507	0.737827291756
1	146	31.002685422631	0.307280352153
1	148	31.119024630073	0.535565720228
1	150	31.285680049271	2.894420477987
1	158	32.152385477722	0.609082423183
1	160	32.825354598261	1.488254825752
1	168	33.141610299101	0.018968569201
1	176	33.718927944775	0.840334705612
1	183	34.229300696258	0.961380939066
1	188	34.606687245044	0.946996677175
1	191	34.781375034683	0.959547977368
1	193	35.751826199744	1.190000161046
1	198	37.107215717536	3.033946728146
1	200	37.336257907963	0.445518495051
1	205	38.063017896471	0.574532406741
1	210	39.634087872684	1.196107799457
1	215	40.826446425387	0.062115290466
1	220	41.967804828247	1.098912467551
1	228	45.479703490838	1.110597445687
1	233	45.664146882722	0.236206706083
1	235	45.753394931085	0.138028688428
1	240	46.437732235561	0.378961964283
1	245	47.899915021294	0.452102060225
1	256	49.228302314368	0.844427793528
1	258	49.354311388951	0.577324310807
1	263	49.92967634788	0.107635108156
1	268	53.249289400554	0.234301518776
1	270	53.270667080733	4.454496846176
1	275	54.248727840556	0.175913545426
1	280	56.139576255644	1.058742715094
1	285	60.73301442406	0.292080533267
1	293	61.94079132541	0.627941580991
1	295	62.128191429981	0.280277008479
1	300	62.664822879251	0.173127456146
1	305	63.585514906968	0.116955409792
1	310	64.949132924248	1.06807219715
1	315	65.152941297883	0.148712269252
1	320	65.604665468512	0.218880596507
1	325	67.352434163018	0.46001395774
1	336	71.068024359533	0.102144881525
1	338	71.599941754847	1.720331657717
1	343	72.055680765904	0.101034775309
1	345	72.799362975723	1.819818919284
1	353	76.823491815933	3.749031459584
1	355	77.280385325089	0.632336596396
1	372	80.394432119719	0.928478496901
1	375	80.726842360683	0.6036149248
1	380	80.867525821394	1.344245272152
1	387	81.312945283314	1.129551420227
1	390	81.439333919739	0.673061667785
1	397	82.515297313989	3.761927284504
1	400	82.606207446288	1.711878429023
1	403	83.050181689746	1.8046765831
1	406	83.116479091228	0.832626751356
1	411	84.618412483528	4.474994919499
1	416	85.110119229373	3.208967838363
1	421	85.488582516926	0.83609753197
1	423	85.587279063939	1.179189527065
1	425	85.79374334112	0.308414840098
1	433	88.229327973976	0.740758950447
1	435	88.298467269164	0.098650308418
1	440	91.543294958797	0.857895641074
1	453	93.696034522121	0.383560214099
1	456	93.837365235682	0.190149761467
1	458	94.738660633642	1.100845910091
1	463	95.874959754358	2.649255928676
1	468	96.754476935326	1.259933810109
1	470	96.877977946422	0.341654167026
1	475	98.57995668945	0.202350438567
1	483	99.212636556698	0.020312458796
1	485	99.568253016604	0.883129041959
1	493	100.18208029018	0.004706540492
1	501	101.112167812818	0.314721660855
1	506	101.762862570116	1.765741072413
1	508	101.771738787704	1.132634141972
1	513	102.969287057861	1.32875787375
1	518	103.483405548291	0.286020972508
1	523	104.623681697092	0.858392967829
1	531	106.072904009343	0.896590870786
1	533	106.132181015263	3.275143177715
1	535	106.529877756709	0.849220811564
1	540	108.196810513897	0.252419992891
1	548	111.777180176951	0.592624027452
1	550	112.015330907909	3.052281656884
1	558	114.122782074609	1.202238567247
1	560	114.197623992889	1.873459879857
1	568	117.11657022388	0.353020133274
1	573	118.567998942514	1.680922204546
1	575	118.848914044287	0.505018747755
1	588	120.870435636319	0.870535826326
1	591	121.004117189217	2.129499396068
1	593	122.049818569964	1.386769441494
1	595	122.422140736046	2.134830449983
1	603	125.319328850322	1.291909268801
1	605	125.611080452858	0.6957994609
1	618	127.568436879199	0.551395990134
1	621	127.787780658035	1.032797010645
1	626	128.500839759606	0.98148807228
1	628	128.503185034168	0.019379781348
1	630	129.118584233752	3.125468357658
1	635	129.486837177013	0.35892721587
1	640	130.84235787543	1.079320198656
1	648	131.364680818736	0.342599624698
1	653	132.324120982391	0.962375055771
1	655	132.405342683283	0.559961070074
1	660	133.373934798194	0.145573978448
1	671	135.690032556941	0.354224132245
1	676	136.288243995782	0.843888472591
1	678	136.435007356074	0.893729078306
1	686	136.832386027185	0.854079735643
1	688	137.839867662682	1.059009385381
1	690	137.870911304319	1.05584960866
1	698	140.852207676062	0.564610501121
1	708	141.382981646026	0.458172883958
1	711	141.64956393875	0.572461551428
1	713	142.943361259782	2.268633992692
1	715	143.607896303251	2.428473301076
1	726	146.494488179083	0.105612643629
1	728	146.835818171245	1.217019495337
1	730	146.958130340612	1.640897577927
1	743	148.34043839429	1.252607524912
1	746	148.502308481002	0.346669337957
1	748	149.502231163861	2.519282130083
1	753	152.021280745225	2.025908817103
1	761	152.522874793018	0.177325575145
1	766	153.225933767597	0.132183709615
1	771	153.33979855468	0.955966423922
1	773	154.287567045259	6.765390519937
1	778	155.160217546451	1.883928886586
1	780	156.432831216801	1.646719101327
1	793	157.540567883644	0.071675384313
1	796	157.629979572732	0.841880961732
1	798	157.840971519225	0.522870030088
1	800	158.736006449926	1.233327165043
1	808	162.156825195536	0.604299071848
1	820	163.30013289391	1.280334203812
1	823	163.562462203076	0.490981987858
1	826	163.574245434994	0.485997453784
1	828	164.577428554449	2.012772736206
1	833	165.47107803922	0.446252820519
1	835	166.32652896233	3.709960591904
1	840	167.781917664712	1.309298364023
1	845	169.54552602801	0.188294975219
1	853	171.21400500036	0.055870052889
1	855	171.479653504799	0.736131099987
1	860	172.053734672406	0.223139208101
1	865	172.263269857399	0.018695470421
1	873	172.883428550783	0.253505705143
1	878	173.676177290975	0.423657101357
1	880	174.020816616543	1.578412722106
1	885	177.96077011261	2.632218862549
1	893	179.182591060836	0.032356804645
1	895	179.431892341811	1.218796803343
1	900	180.238155625068	0.179957341552
1	911	182.560511667878	0.971482158095
1	913	182.605580255458	0.271668070342
1	915	183.143152916002	0.860923636681
1	920	186.256231347571	2.721348255913
1	928	189.365845687194	0.951829707542
1	930	189.492063439194	0.767079654572
1	935	190.752958856789	0.89137857691
1	940	193.168537618731	1.309785371362
1	945	193.622315807048	0.373886495903
1	950	197.094228767686	0.507865122687
1	955	197.629868271817	0.235524573419
1	960	197.839128619729	0.206032048483
1	971	199.476901886392	1.345347433234
1	976	199.648777798208	0.674244569636
1	978	199.834224979036	0.25801276394
1	980	200.773770776258	2.889075591899
1	985	203.384198547556	0.293507651923
1	990	204.291609761407	0.059780962915
1	998	204.752725244997	0.373669794394
1	1000	204.890880653793	0.569897565306
1	1005	206.240027277948	1.191858103655
1	1010	207.651255559157	0.474416290333
1	1015	211.121501617983	0.197967735334
1	1020	211.909961807533	0.024988353313
1	1025	212.73656684617	0.069617671074
1	1030	215.732847817517	1.137538505541
1	1035	216.561822254617	0.604581218335
1	1040	217.377591569296	0.769119801096
1	1051	220.008667329895	2.269840015784
1	1053	220.17158193885	0.244491022043
1	1061	221.475458751752	0.305604901814
1	1063	221.648925369815	1.087904433614
1	1065	223.31254017309	4.639652526374
1	1070	223.559639239385	0.02086721861
1	1078	224.332407159258	0.385687694045
1	1080	225.106751509251	1.420383455585
1	1085	226.563921140178	0.48363838749
1	1090	229.315628442601	0.887501928484
1	1103	230.850053910691	0.991504292897
1	1108	231.169628565564	0.577655922707
1	1111	231.24411992644	1.778143336834
1	1116	231.725254534458	0.205347768736
1	1118	232.652738531843	2.060821240881
1	1120	232.769348007404	1.80361207073
1	1131	235.676491203651	0.242718493672
1	1133	235.987841380695	1.163113283425
1	1138	236.73885511619	3.053184669593
1	1146	238.2025303154	0.292951458487
1	1148	238.961446720503	1.312507992966
1	1150	239.038756067151	2.944480277423
1	1155	240.272249030291	0.239923519436
1	1160	241.138982527615	0.730227665239
1	1165	243.591848148985	0.025997745193
1	1170	244.43656402777	0.232525018385
1	1178	246.000228157986	0.552838370652
1	1180	246.082940904544	0.468676475977
1	1185	247.548066106492	0.622829309765
1	1193	248.289658451284	0.325216017976
1	1198	249.090147734112	0.883785656033
1	1203	250.185828834768	0.125032589923
1	1205	250.406759272961	1.994039201277
1	1210	252.164000041381	0.728523842734
1	1215	252.70057873299	0.141642034795
1	1223	253.579677185774	0.504279933251
1	1225	254.144948485168	1.261812673487
1	1233	255.118892280483	0.202458763698
1	1235	255.12777483835	0.833378240646
1	1240	256.908172690109	0.156475770384
1	1251	257.600670935003	0.439455390493
1	1253	257.650481835793	0.669540590861
1	1263	259.98686990899	1.380963095667
1	1266	260.02453529819	1.449554776428
1	1271	260.115192116198	2.820635948415
1	1273	260.164526089368	0.087108583258
1	1278	261.126007361419	0.803391762667
1	1283	262.327361869647	2.347112041904
1	1285	262.584147143621	0.878215078718
1	1296	263.413765650553	0.345519583709
1	1298	263.578429853138	0.275527937038
1	1303	263.746743805049	0.105687174105
1	1308	264.788541204555	0.016566094422
1	1318	266.290054724023	3.268496400823
1	1321	266.756638751362	1.108409754214
1	1326	267.48964649044	2.65255851552
1	1328	267.778411507183	0.330909881176
1	1330	267.8278834385	2.170371416974
1	1335	272.486353266527	0.882880544957
1	1340	272.885255205622	0.066092010693
1	1345	273.684413139567	0.664807749552
1	1356	276.568159147471	0.412729866727
1	1358	276.697974174212	2.091556572623
1	1366	277.531875653211	3.794023783088
1	1368	277.598034071061	0.263577112835
1	1376	280.346962113198	3.258920977185
1	1381	280.923936922318	2.982200675473
1	1386	282.335885786351	1.605458763068
1	1391	282.889265214603	2.836640193375
1	1393	282.983127662221	0.995463643367
1	1398	284.233140272311	0.346753303789
1	1403	284.727267968591	2.0737614631
1	1408	286.465923204466	1.890101698096
1	1413	286.666674610774	0.013325244828
1	1415	287.399265075942	0.96201192659
1	1420	288.564127660632	0.426535812036
1	1425	291.957583273848	0.160334094487
1	1433	295.946864356148	0.650797342359
1	1435	297.787947738838	4.007949654874
1	1440	300.185869918498	0.687943478461
1	1451	301.362449776094	0.459791317776
1	1453	301.363881393694	0.147225037313
1	1458	301.918789224952	1.020187087955
1	1463	302.514664542878	0.210533288204
1	1473	303.373773147931	0.716045317994
1	1476	303.424453850917	0.25401137835
1	1478	303.471756964425	1.726633379742
1	1480	303.47674151165	0.177718801807
1	1493	309.228546318511	1.981890341109
1	1500	311.376675803471	3.608941004984
1	1503	311.598933899125	2.568069499752
1	1506	311.821825142877	1.235666383149
1	1508	311.849834068225	3.239962966901
1	1510	312.004116781467	0.887996442467
1	1515	312.688129585102	0.084579491762
1	1523	313.636508580845	0.522967653656
1	1525	313.737105296451	0.264270464136
1	1530	315.1075925079	0.142125511393
1	1535	317.626946171379	0.054907372551
1	1540	319.258689068747	1.293147858796
1	1545	321.031894239167	0.011493250209
1	1553	321.955804444071	0.158933179656
1	1558	322.242975756236	0.082862272919
1	1560	322.506651738194	1.472204157994
1	1565	324.398373495113	0.093874547283
1	1570	325.707899080085	1.114887421907
1	1575	326.005914448253	0.281524022471
1	1580	327.933013921223	0.545657714767
1	1585	328.768269078987	0.815018330896
1	1593	331.318177404946	1.970057565592
1	1601	331.836720213518	0.140967884415
1	1603	331.909378273878	0.315160028716
1	1608	332.048620734818	0.056966532467
1	1610	332.416185298169	1.298445635605
1	1615	333.246944725749	0.358961318377
1	1620	333.839129670644	0.303971559229
1	1625	334.813525438725	0.609064455324
1	1633	335.967641460743	1.14974138775
1	1638	336.478310374179	0.333403338375
1	1640	336.750979516104	1.189496251335
1	1645	338.537667280958	0.477917987511
1	1650	338.82777531511	0.199855537921
1	1658	341.152170386785	0.058527898947
1	1663	341.935379924245	1.553745502032
1	1668	342.377993102515	1.194013370595
1	1673	343.771121872047	1.508215231627
1	1675	343.996740406086	1.502412793711
1	1680	344.673771126871	0.300325080286
1	1693	345.985243120407	0.468106453235
1	1696	346.104601511063	0.318583847879
1	1698	346.448633147947	0.652880075422
1	1700	346.599359199099	0.88576064603
1	1708	348.241305222861	0.219468160894
1	1710	348.781009367133	0.615919283784
1	1715	349.721189734069	0.045638049496
1	1723	353.60397263364	0.080078855944
1	1725	353.876418142442	1.608417849086
1	1733	354.930390090482	0.731545339133
1	1735	355.199228169674	0.366451291833
1	1743	357.837544070066	0.861667491795
1	1751	358.408811681587	0.036002829749
1	1756	359.218757900043	1.037245094103
1	1758	359.580542544821	0.562825201817
1	1763	360.850917284459	3.204808829612
1	1765	361.261950044748	0.713384282801
1	1776	362.016115739501	0.325170870489
1	1778	362.129717465	0.768253341867
1	1780	362.679454662626	1.143795379119
1	1785	362.877187205897	0.137953231929
1	1793	364.012768686342	0.49869233287
1	1801	364.274331124469	0.207185182251
1	1806	365.164768499816	0.784837019592
1	1813	365.855352434651	0.610482844998
1	1816	366.584584588894	2.343239930093
1	1818	367.040963414966	3.132829489547
1	1826	367.992774125068	2.651107063107
1	1828	368.36928770221	0.613604209741
1	1830	369.130262461992	1.287961975076
1	1835	369.962834972903	0.509202486866
1	1846	372.819651977136	1.171263694947
1	1851	373.242101690631	0.39708095002
1	1853	373.406760979176	1.202713783829
1	1858	373.894138400359	2.343869640799
1	1866	375.126774052168	1.413783329539
1	1868	375.274537515687	0.274463522004
1	1870	375.983401056352	1.010769163099
1	1875	376.489591139985	0.174995048218
1	1888	378.762299124216	0.612745444864
1	1893	379.362712426136	1.591556122793
1	1896	379.656300526896	1.241653746137
1	1898	380.979225716511	3.19825497677
1	1900	381.312689337983	2.198016921109
1	1905	382.798805200945	0.611057561286
1	1913	383.963753199242	0.857435102614
1	1918	385.797398299478	1.719069311788
1	1920	386.037708776022	3.033942572398
1	1928	387.928042024665	1.690234954758
1	1930	388.461448231923	2.395179789389
1	1938	391.29496262346	0.173656563208
1	1943	391.817579423444	0.508219454053
1	1945	392.201417948666	0.991279505759
1	1950	392.378176836059	0.06476569279
1	1955	395.846894413185	0.55170361259
1	1960	398.355123638696	0.299328382418
1	1968	399.983586136305	0.033871855242
1	1970	400.539606008034	1.890729154431
1	1981	402.111214934295	0.439076985588
1	1983	402.240866333234	0.44115481073
1	1988	402.402943613169	0.016463283985
1	1993	403.088541882674	0.204852267147
1	1998	404.155581381605	0.512926991829
1	2000	404.499194667595	3.193761872682
1	2008	406.382690184676	0.104932747328
1	2013	408.158483122187	2.64918826223
1	2027	409.066642918412	0.60543378164
1	2032	409.331577856049	0.773827440249
1	2037	410.284700394315	1.669357061698
1	2040	410.318334315235	1.307425382223
1	2043	410.323955917923	2.905919603656
1	2046	410.339685041698	0.967544247801
1	2048	410.393832487402	2.036294187272
1	2050	411.057254335174	1.955837932014
1	2055	411.761691323087	0.560008373331
1	2060	411.991829795806	0.070501948361
1	2065	413.260943428495	0.290273415123
1	2073	414.007179921914	0.24995081665
1	2075	414.082179162049	0.291946071729
1	2080	414.798570677163	0.140475716955
1	2085	416.144626430054	0.012109245062
1	2090	416.727200280081	0.122715007317
1	2095	418.243433839225	0.963592696289
1	2110	422.552932668866	0.52603079576
1	2117	424.333867343757	2.260230568916
1	2120	424.936966738118	3.659562118462
1	2123	425.007810787976	2.563012292334
1	2132	425.958685085528	3.33600983203
1	2137	426.198260541783	4.64027999595
1	2140	426.538497761396	0.79339357453
1	2143	426.611549418551	0.798911074808
1	2146	426.887854611479	0.700154324617
1	2148	427.48762395624	2.201547696861
1	2153	428.892564664439	1.086203311157
1	2158	429.239470658169	0.282446711958
1	2163	429.555634639836	5.914741807531
1	2168	430.532429201703	1.096192561009
1	2170	431.169547522787	0.728377573033
1	2175	433.608613003814	0.551802121638
1	2183	435.789529147977	0.808979695133
1	2185	436.007409459587	0.338346118699
1	2190	437.453522342387	1.226132212234
1	2195	438.492408563176	0.53589879534
1	2200	439.743925632413	0.447139902597
1	2205	441.653530539942	1.764087392189
1	2213	443.858426297834	0.047099271055
1	2218	444.582832514017	0.264782273338
1	2223	445.949914373785	2.589826145497
1	2225	446.088577586042	0.42850760418
1	2230	447.943460162017	1.687218288758
1	2243	452.156972876381	2.353334768073
1	2246	452.508740261811	1.510612209995
1	2248	452.795615589908	3.472855705903
1	2250	453.258402152429	4.233015796332
1	2261	453.687782817072	0.286909095384
1	2263	453.789290979375	0.111944541144
1	2271	454.874658145173	0.265816549022
1	2276	456.951426966299	3.014968272186
1	2281	457.333518544482	0.06012836913
1	2286	458.000491509365	1.170435730014
1	2288	458.101555466473	4.829720247969
1	2290	459.071872396195	1.311963081085
1	2298	460.684426340911	0.318054545191
1	2306	461.84018654086	0.476515820973
1	2311	461.975051821166	0.468878155628
1	2316	462.380242793998	2.134702394541
1	2318	462.638686438482	0.271555791682
1	2320	463.356428437025	1.381459079848
1	2325	463.695490777716	0.188564724251
1	2330	465.690833200034	0.596549916877
1	2338	466.158407632667	0.363078840184
1	2340	467.974176341842	1.827526267817
1	2345	468.589345921808	0.271469966429
1	2350	469.449478359584	0.697937548831
1	2361	471.908051331098	1.005115648572
1	2368	472.94986788316	2.857425347816
1	2375	473.147562679607	2.019584503219
1	2378	473.308705258433	0.223367706285
1	2383	474.339226390108	1.682800673732
1	2388	474.740112107662	2.816911729965
1	2391	475.341266754046	0.887050648728
1	2396	475.758441333768	0.073506377419
1	2398	476.749649306018	3.639383658142
1	2403	477.266048159897	0.346433327495
1	2408	478.031009585977	0.165293012321
1	2413	479.520577502974	0.540402697602
1	2415	479.524355813141	5.211532820556
1	2420	479.714250529062	0.140745155429
1	2431	481.691125427327	0.926638600297
1	2433	481.722401711833	0.482575215161
1	2435	483.60269941734	2.257476790756
1	2446	484.986560115286	0.321340302869
1	2448	485.437339614068	0.791609094603
1	2450	488.006162102779	3.435623392478
1	2463	489.453182916931	0.897053014106
1	2466	489.538324250744	0.522111304411
1	2471	490.256319688852	0.997361305159
1	2473	490.44322778241	0.316977379886
1	2475	490.987570050789	2.270710107397
1	2483	494.45344347754	0.607784764117
1	2485	494.6781853751	0.513685613264
1	2493	497.959132233343	0.285568920503
1	2495	498.404340678642	0.704949321376
1	2500	500.260653826652	0.371615754828
1	2508	501.588991142604	0.466864343563
1	2510	502.191921777601	0.744378261398
1	2518	504.132643349651	0.405726343867
1	2523	505.088713660141	1.388677273867
1	2528	507.092053201257	1.982812580274
1	2530	507.288558479292	2.579113130786
1	2535	508.574081125841	0.049915602426
1	2540	509.001331997512	0.292550601191
1	2548	511.537204866948	0.110515876602
1	2550	511.617142679292	0.590835220405
1	2555	514.055459339581	0.428441028791
1	2566	515.692832969692	1.347448823691
1	2568	516.201061667632	1.141043334253
1	2573	516.523005335479	0.97387859148
1	2575	517.544036642375	1.239698080616
1	2580	519.428773350417	0.229317171637
1	2585	521.851187688823	0.418091658944
1	2593	523.691313661766	1.127760433573
1	2603	525.02803288497	0.332260623579
1	2606	525.058734657981	0.202478289232
1	2608	525.161935942253	0.784556696918
1	2610	525.696413223916	2.113906814647
1	2618	527.812233465617	0.007915346506
1	2620	528.035341086005	1.239036507378
1	2625	528.626780927113	0.466297026438
1	2633	529.533243236988	0.75616624779
1	2638	529.712258273402	0.09375538761
1	2643	530.587369719038	0.520778864871
1	2648	530.789785504317	0.024613644071
1	2653	531.351446941837	0.419479323469
1	2655	531.354386690491	2.552476493547
1	2660	532.459708635427	0.973472543646
1	2668	534.096480240778	0.235405866505
1	2670	534.179736736954	0.327210381326
1	2675	537.453430779938	0.122962566888
1	2686	539.365253057358	0.860714707514
1	2691	539.79757978356	1.188329160287
1	2693	540.066036317888	1.114611002999
1	2698	541.016539216513	0.002706874579
1	2708	542.548118183132	1.041844464821
1	2711	542.681130381564	0.917271796912
1	2713	542.699150442306	2.973208339482
1	2715	543.436646895458	1.066075901562
1	2723	547.76076145746	0.01701562373
1	2725	549.239721549992	3.290648830259
1	2733	551.398705877355	1.192315774219
1	2738	552.600823768201	0.712956479128
1	2740	552.987141033695	1.680282400081
1	2745	553.449754884567	0.406412866747
1	2753	554.22100090278	0.10230178101
1	2755	555.653823861304	1.564656550698
1	2760	557.222047987922	0.583460172305
1	2765	558.154342205744	0.733869967023
1	2773	562.725204942717	0.095284482872
1	2775	563.330895171929	1.184027736347
1	2780	564.531732943769	0.258459248718
1	2785	565.419470062913	0.528143990722
1	2793	567.621066213436	0.976292022969
1	2795	569.599408373979	2.180020447156
1	2800	570.566601577868	0.96449976176
1	2805	571.866504976739	0.143248703785
1	2816	574.124719198113	0.698603566946
1	2821	574.693484999571	2.054052483864
1	2826	575.654697379422	0.779535028831
1	2833	576.062663352229	3.941458684626
1	2838	576.953682316311	2.555517716664
1	2845	577.834016671549	2.048806884928
1	2848	577.957426143056	0.692159700097
1	2851	577.994125213337	0.684931536251
1	2853	578.224263769281	2.567932628702
1	2861	580.02430671459	0.192095576149
1	2866	580.40469244567	3.477867135528
1	2868	580.437619853187	0.492878768367
1	2873	580.965040721902	0.356716252673
1	2878	581.610560652928	0.174910260096
1	2880	583.364783623516	3.039531590134
1	2888	585.262944374343	0.591302785569
1	2896	585.978119352969	2.174232907134
1	2898	586.029281031898	0.17462779648
1	2908	587.462230237067	0.580289587983
1	2911	587.54180039216	0.250942213829
1	2913	587.806370480739	1.082101884484
1	2915	587.967402740075	2.384615343231
1	2923	589.00564541288	0.284219743528
1	2925	589.465348604822	1.192252242082
1	2930	591.180898641164	0.040421577653
1	2935	593.310073570562	0.061816148648
1	2940	593.880716980042	0.063023444257
1	2955	596.537052351554	1.346627288536
1	2958	596.929768530358	2.383068273192
1	2963	597.677604479646	2.283394034419
1	2966	597.682538182397	1.510118462883
1	2968	597.793047950327	1.828331517025
1	2973	598.04065163404	0.751713340968
1	2981	598.865398034477	0.449713367946
1	2983	599.054892477706	0.636103454366
1	2988	599.803569166998	0.475209438785
1	2996	600.572713018463	0.191957901951
1	3001	604.225100603209	6.195910118722
1	3003	604.264196706475	3.88864472277
1	3005	604.292213019386	0.397479079923
1	3013	605.397202004725	0.065293595646
1	3018	606.125504000888	1.140524474964
1	3020	606.490087883763	0.934580416349
1	3028	608.804591439553	0.649410726794
1	3030	608.859234975569	0.334075083059
1	3035	609.313714573802	0.272351226355
1	3040	610.76652799331	0.722602237535
1	3045	612.715904289956	0.458751302646
1	3050	613.433617120018	0.609762172858
1	3055	615.869686920976	0.411700577873
1	3063	617.06315073248	0.143223271481
1	3068	617.920145469413	0.101815641977
1	3073	618.676736955949	0.4206676724
1	3078	619.877823520917	3.523151341229
1	3080	620.220257661302	0.894105888125
1	3085	621.458983226776	1.076390459418
1	3090	622.613248619908	0.506263967082
1	3098	623.094420471006	0.433699470401
1	3106	628.114166733999	1.278002129166
1	3108	628.445589579901	1.01495895837
1	3110	629.855900655632	7.233468452799
1	3121	631.882319976103	1.676934732992
1	3126	633.835849024247	2.205400803802
1	3128	633.907016439368	1.446307572156
1	3130	635.059400575221	3.73914847804
1	3143	636.134882341918	0.408717654234
1	3146	636.199565947063	0.070011123886
1	3148	636.2037338095	0.159799780434
1	3150	636.803857807759	1.198151387844
1	3161	637.855818917981	0.276942225328
1	3166	638.166933625039	0.566129551696
1	3168	638.486572699122	0.738136742548
1	3170	639.533564368098	1.483173408035
1	3178	640.421498976862	0.124793092261
1	3183	640.977766910112	0.113173332392
1	3191	642.148664666602	0.890853801891
1	3193	643.286858288933	3.187884172273
1	3195	643.501503684177	1.368054021375
1	3200	646.774527354485	1.884864614205
1	3211	649.187481937272	0.510495162703
1	3213	650.462438581069	2.746251870224
1	3218	651.379346161389	0.47857657107
1	3220	651.870057959933	4.09993429267
1	3225	652.579082952069	0.159944213353
1	3230	653.81177914339	1.154974533568
1	3238	655.17428179214	1.069331058368
1	3240	656.295470515621	1.980955296123
1	3248	656.707090918971	0.102318479573
1	3253	657.302454670688	0.688710843956
1	3255	657.5783904736	0.870079910367
1	3260	657.950234047031	0.276487684101
1	3268	658.340881625976	0.185156053486
1	3270	660.220397632628	1.963123289557
1	3275	662.512860986971	0.060318023778
1	3283	665.160859610576	0.123110454917
1	3285	665.357562520941	0.636050471124
1	3290	666.28941875372	0.610754174865
1	3298	667.593326132553	0.551137948315
1	3300	670.242258608236	3.910140769654
1	3311	670.691426628485	0.124787522359
1	3313	670.923524452975	0.316427391188
1	3318	671.785343789688	0.517166927071
1	3330	672.391656707235	0.510512575936
1	3333	672.407109270846	1.945784583922
1	3338	673.262231036182	1.112863811612
1	3343	673.658057931505	1.315804806931
1	3350	674.167486441726	0.892272131326
1	3353	674.28162622425	1.516683311609
1	3356	674.334857263562	2.124815738817
1	3361	674.41555246918	0.072616058106
1	3363	674.637094473855	0.881588349647
1	3365	675.234912155473	1.457187379246
1	3373	677.154743972335	1.728259372968
1	3375	677.467914448176	1.059644943209
1	3383	680.157453162969	1.295877816499
1	3388	680.484444662146	0.117070039328
1	3390	680.74555201875	0.769861935814
1	3395	681.266747379037	0.519253724881
1	3400	683.058969934923	0.51982194488
1	3408	684.39489379599	0.030407993764
1	3410	684.421576575413	0.387197467241
1	3418	686.556858149123	0.116291666767
1	3423	686.9525631765	1.336568417323
1	3431	687.88301237328	0.932186740566
1	3433	688.804038595821	1.00727268839
1	3438	688.922435658508	1.214755708568
1	3443	689.031530436837	0.109031863622
1	3448	692.090074535086	3.197658757406
1	3453	692.299018234942	0.029624752297
1	3455	693.141979207508	2.018663759927
1	3463	695.007820751367	0.517923445071
1	3465	695.254228086692	0.765539082274
1	3470	698.000721113683	0.742723749699
1	3475	700.889715562512	0.454287577062
1	3480	702.238051423771	0.211421174978
1	3485	706.883525803047	0.019308105193
1	3490	708.033193895152	0.730122020256
1	3498	711.039276201608	1.850089219871
1	3500	711.128953070741	0.46715322646
1	3505	712.188790973264	0.252139676433
1	3510	713.024135724763	0.083960040033
1	3515	713.396614934496	0.089171082268
1	3520	714.328328193432	0.250253280403
1	3531	714.501500464413	0.068438875383
1	3533	714.504448711552	0.10537614063
1	3538	714.656736653188	0.067855878048
1	3540	714.71573926281	0.307938795581
1	3548	715.738688670376	0.176880706122
1	3556	716.843292734471	0.82025899261
1	3558	717.249794939151	1.939861759591
1	3560	717.564531697067	1.484814074048
1	3565	719.110613450307	0.609559180844
1	3570	720.829949406107	0.166490193919
1	3575	723.161818047296	0.222638852035
1	3580	723.910300222041	0.567368119666
1	3588	725.342222707328	0.75127237367
1	3593	725.577643347837	0.429922202739
1	3607	726.97021869899	1.390389327227
1	3610	727.027692735554	1.520875907633
1	3613	727.128198259287	0.334089091035
1	3618	727.626714591201	0.803225475667
1	3621	728.747943386346	2.620201576881
1	3623	729.230619146366	2.611331978148
1	3628	729.733506717081	2.478915774331
1	3633	730.477046664197	1.173717727874
1	3638	732.042938224929	1.424131015636
1	3643	733.574378610165	0.453413418332
1	3651	734.682982043486	0.695275780987
1	3653	734.774724766058	4.369999751428
1	3655	735.068554365196	0.472228748644
1	3663	736.078522381589	0.45399144675
1	3665	736.219922570676	0.302328138049
1	3676	737.403623193426	0.685120077938
1	3678	737.40856079726	0.324816804646
1	3686	738.004841669947	1.144886449469
1	3688	738.032842858041	0.124860857839
1	3690	738.54853839461	0.743135654305
1	3695	739.991706239813	0.174169221107
1	3700	740.368900333742	0.047937199582
1	3708	741.470719353431	0.003867823187
1	3713	743.03729148356	0.196720688629
1	3718	744.117574492427	3.531241400492
1	3723	744.72857574523	0.948986346776
1	3725	744.729609868418	0.08487141104
1	3733	746.967382017884	2.136193926315
1	3735	747.262314059894	1.271610002319
1	3746	751.400929042154	0.70853607544
1	3748	751.447705766971	0.357251795269
1	3753	753.147315565748	3.392930714642
1	3755	753.510842464607	0.797398475835
1	3766	755.795733838149	0.735556754943
1	3768	755.908252883396	0.310892063104
1	3770	757.194579973742	2.671024973508
1	3781	759.671557538008	0.001384312606
1	3783	760.101804210023	0.465085743748
1	3791	760.454740571781	2.098818428574
1	3793	760.509805134706	0.28460018399
1	3795	760.706872518	0.383068067085
1	3803	765.635304977908	0.613418066124
1	3808	766.12313914662	1.95741839224
1	3813	766.641851426378	0.588043811677
1	3815	766.916719245596	0.409627160081
1	3823	769.734784572773	2.125930569943
1	3828	771.358029853853	2.900909041184
1	3833	772.723770320689	0.472793544711
1	3838	774.762067899079	4.814697999731
1	3846	776.154746736001	3.385740902905
1	3848	776.219442739629	1.126052797698
1	3856	776.530980387127	0.280891155497
1	3858	776.595731329335	1.569638354608
1	3860	776.756774311431	0.243929669861
1	3865	777.468495901913	0.181579217661
1	3873	780.490848688642	0.348248634181
1	3875	781.330669963398	2.560793914768
1	3880	782.024165140779	0.603478792429
1	3891	782.761324426515	0.681135278099
1	3896	783.442485348235	0.149745208258
1	3898	783.801740132773	1.505851143081
1	3903	784.385421330268	1.859406572419
1	3905	784.425365776944	0.556702664096
1	3916	788.105296393005	0.108046066873
1	3921	789.407720734919	1.850585646586
1	3923	789.465143984072	0.170057088793
1	3925	789.618919365079	1.703931604418
1	3930	793.363768668807	0.362691136206
1	3935	794.603097614034	0.078349801093
1	3943	794.95960466509	0.113860657306
1	3945	795.361297248985	0.552799333504
1	3950	796.208006752517	0.839833501385
1	3955	797.752968664201	0.28310182899
1	3963	798.494710720037	0.125025548843
1	3965	798.942902676172	0.907412919939
1	3978	804.028671329706	0.497246469842
1	3981	804.305978858636	0.771873340436
1	3983	804.832582840559	3.724874374092
1	3985	805.283818461718	2.69653485392
1	3990	806.503313775855	0.288213167908
1	4003	807.630478853764	0.040814500351
1	4006	807.995933584984	0.660473894281
1	4008	808.155239297838	0.533014012423
1	4010	808.635561360019	1.020832419053
1	4015	810.718912386308	0.473861578995
1	4023	813.083850726572	1.657394520668
1	4028	813.882290252591	1.234553869781
1	4033	814.758541170303	0.433766189507
1	4041	816.640634798919	3.086397138889
1	4046	817.211116349368	2.278309742808
1	4048	817.319113794116	1.469533315869
1	4050	817.353404983551	0.442271189008
1	4055	818.349982365083	0.971976393078
1	4060	818.821809466241	0.340478191536
1	4068	819.299933912617	0.119264869975
1	4076	819.68497264474	0.23880855945
1	4078	819.733194745353	0.202156936252
1	4083	820.435553097858	0.515881722526
1	4088	821.166417200144	2.074652382398
1	4093	822.071428163923	0.748464234924
1	4095	822.232095084947	1.367405719003
1	4100	823.287219277095	0.66879868417
1	4105	823.75235497318	0.000546119959
1	4113	824.157738624529	0.065663185177
1	4118	824.392194282631	0.233513706038
1	4120	824.46218564057	0.554084144848
1	4131	825.136494946823	0.242578958876
1	4136	826.9406122784	1.954308771698
[...]
1	47555	9519.287006072017	0.215058785321
1	47560	9519.729388820654	0.062161965975
1	47568	9521.293064723986	0.014588408326
1	47573	9522.03468824218	0.536071549429
1	47578	9522.194077885622	1.539699561248
1	47580	9522.948051207571	0.788563471249
1	47585	9524.0138491278	0.189810002081
1	47593	9526.564712767398	0.525398931597
1	47595	9526.650761262411	2.297166368543
1	47600	9527.11267615796	0.201019837475
1	47605	9528.722427930728	0.944637664394
1	47610	9531.88223353783	1.020121014545
1	47615	9533.453727010891	0.492120700963
1	47620	9533.790204255682	0.031974131425
1	47628	9535.83755328334	0.271502507919
1	47630	9536.403473436393	1.08366250654
1	47635	9537.322749846577	0.162431395745
1	47643	9541.848690324082	0.701666183869
1	47645	9542.6176407247	1.720018337716
1	47656	9543.37062942849	0.594079991427
1	47661	9543.916694046046	0.636179518197
1	47666	9544.353555129353	0.946337271503
1	47668	9544.469429303823	1.40585335403
1	47670	9544.501681387095	0.521281086177
1	47683	9545.955609585192	0.833710415594
1	47686	9546.962287528349	2.185000094338
1	47688	9547.837539510648	2.3280161929
1	47690	9548.246558311871	2.599179717704
1	47701	9550.68120040047	1.421178751656
1	47703	9551.228514391139	0.794186573847
1	47705	9551.580940633775	1.061951376457
1	47710	9551.91837567478	0.251137822542
1	47718	9555.220198838382	2.514879632399
1	47726	9555.97059325732	0.025811289645
1	47728	9556.658955737007	1.964228406229
1	47736	9557.070794502794	0.216325785471
1	47741	9557.467720969858	1.547136027856
1	47756	9558.898697812687	1.655764244326
1	47759	9559.343163044849	2.485275740494
1	47762	9559.461547846321	1.871839734703
1	47765	9559.62884509149	1.898335285959
1	47768	9559.851619143595	1.404428481585
1	47771	9559.92828533828	1.679304921417
1	47773	9560.206681918714	1.463273215023
1	47778	9560.866931697109	0.357907588049
1	47780	9561.112336705743	3.42811087317
1	47788	9564.040618491221	0.194714092962
1	47793	9565.864289273988	2.140741716564
1	47798	9565.987246945992	1.789506026023
1	47800	9566.527523393173	0.649259945058
1	47808	9567.184058801906	0.302651878361
1	47810	9567.831212205727	0.877626039159
1	47818	9569.954401071197	0.327104335676
1	47823	9570.676576456673	0.723376885882
1	47828	9571.398445144184	0.951078420898
1	47833	9572.179723378838	0.874726204743
1	47838	9573.443573456318	0.964344025636
1	47840	9573.866630802906	1.694109852434
1	47845	9574.204868640347	0.249281565966
1	47850	9574.716902291568	0.349405907537
1	47858	9576.26226761323	0.514461776358
1	47866	9576.501750976678	0.024838294852
1	47873	9577.376140621672	1.46744950308
1	47876	9578.052356014114	1.095495585332
1	47881	9578.675865688324	0.1412686929
1	47883	9578.796634596474	2.345309371998
1	47888	9579.681371077677	0.833425135901
1	47893	9580.981052745307	0.613473799017
1	47898	9581.962546368824	5.023439011238
1	47900	9582.010600712593	0.050579385691
1	47911	9582.906942200042	0.86186005743
1	47913	9583.534586347158	0.639854056323
1	47915	9585.455975310815	2.681960895254
1	47920	9586.955080126797	0.260329814596
1	47928	9588.466801640582	0.311463261232
1	47933	9589.138427910611	1.111516590864
1	47935	9591.333995301868	2.46735414071
1	47940	9594.276990616154	0.648261021501
1	47948	9596.669865333637	0.050385866263
1	47950	9596.849097137002	1.535047234188
1	47955	9600.034355340465	1.318594076152
1	47960	9602.110649626643	0.160140722193
1	47965	9603.23375978013	0.245539827497
1	47973	9604.15266950458	0.132303738411
1	47981	9604.621430750656	0.349147240302
1	47983	9604.985123538728	0.461888227036
1	47988	9605.650158120982	1.975502454132
1	47993	9605.838442397434	0.154188592592
1	47995	9607.526554095508	2.4080629716
1	48000	9608.940942105375	0.959550530774
1	48011	9609.243853500376	0.226784877179
1	48013	9609.412717923718	0.340814177248
1	48015	9609.717461369785	0.588895352293
1	48023	9610.370435589271	0.192824889557
1	48025	9610.920822696299	0.792363438979
1	48036	9613.324169913122	0.525153237643
1	48038	9613.555814885524	0.905157827303
1	48040	9613.675040937273	0.934567708135
1	48045	9614.326337340292	0.2240441361
1	48053	9615.051597282423	0.10318132906
1	48055	9615.146584266868	0.406356417928
1	48063	9616.295464919184	0.014725180752
1	48068	9616.743178478059	0.403154034442
1	48070	9616.746112648657	1.365855696255
1	48078	9618.155489257105	0.207663133559
1	48083	9619.270084942766	0.741320168612
1	48088	9619.733428495229	0.161631080763
1	48090	9620.512480419379	2.581512425661
1	48101	9623.159108721267	0.374875973827
1	48106	9623.955674595998	1.718022895753
1	48108	9624.679721445672	2.991111062003
1	48110	9624.714598641528	1.394108250132
1	48115	9627.16207339537	0.837831378964
1	48120	9627.472424984206	0.250581912975
1	48125	9627.710569783025	0.144317524931
1	48130	9628.328604264739	0.286675582253
1	48141	9629.467613864475	0.991527866909
1	48150	9630.904629206633	1.500024464131
1	48155	9631.781368979111	3.096104253887
1	48158	9631.811480770177	1.515826998557
1	48161	9631.899964478716	0.912865054372
1	48163	9632.338942118441	1.567611577752
1	48165	9632.505195757157	2.337806853688
1	48173	9635.346011875296	0.15223744643
1	48175	9636.3331304464	2.885746220375
1	48183	9639.736825306338	0.448680425078
1	48188	9639.994109091411	0.423968386824
1	48193	9640.219601288324	0.400264179689
1	48195	9641.497186828532	1.334140189439
1	48200	9643.991711862929	1.829286812809
1	48208	9645.803262254682	0.845071543988
1	48210	9646.31872849457	0.789823405586
1	48215	9647.687968924076	0.302874152421
1	48223	9650.131722730904	2.336401265978
1	48231	9650.807332097388	0.831897525971
1	48233	9650.864432454965	0.529859372835
1	48235	9651.573463795416	0.819843182327
1	48240	9652.807210052827	0.110335867818
1	48245	9653.342145036512	0.118146681631
1	48250	9657.374799170217	2.621211680239
1	48258	9658.105737943335	0.246611453164
1	48260	9658.223353251248	0.315095951551
1	48273	9659.865170395745	0.814732477887
1	48276	9659.976834656444	0.667210412111
1	48278	9660.232726494129	0.811329175253
1	48280	9660.319976712274	0.480479075533
1	48288	9660.86393099017	0.184883482168
1	48290	9660.910828119542	0.519555732723
1	48298	9661.767952491559	0.687199142492
1	48303	9661.96988346574	0.549836965611
1	48308	9662.298800141891	0.13901753929
1	48316	9663.82886214748	0.956436987169
1	48321	9664.230877082232	0.103098382057
1	48326	9664.704056911311	2.814807409566
1	48328	9665.706627843865	1.2769684087
1	48333	9666.582078234586	3.396987688635
1	48338	9667.027339788534	0.403815931151
1	48340	9667.785046773195	2.006310279563
1	48345	9669.488021202199	0.842490754843
1	48350	9671.881184538947	0.093904322732
1	48358	9673.22679685846	0.286125217702
1	48360	9673.335073147675	0.411065735059
1	48368	9674.919246989484	1.15635165571
1	48370	9674.941140811263	0.057298416406
1	48375	9676.335581795368	0.660155435665
1	48386	9679.018472110637	0.807090733421
1	48391	9679.677746666533	0.006614900753
1	48396	9680.954341797138	2.677345923692
1	48401	9681.314551301325	0.869958438081
1	48403	9681.337125557086	2.53985531898
1	48405	9681.676433498118	0.510472702609
1	48413	9682.459990417287	0.768422876132
1	48418	9683.302720656272	1.048680102329
1	48420	9683.462908759958	0.320724314492
1	48425	9685.257078246024	1.431922696182
1	48436	9687.11776952976	1.407897374375
1	48441	9687.87473080089	2.196299646134
1	48443	9687.879433465831	2.532243755477
1	48445	9688.526766953414	0.743297102294
1	48456	9690.439228474563	0.663962297121
1	48461	9690.514122450906	0.012193442358
1	48466	9691.287138052148	0.038561888021
1	48468	9691.313255378535	1.366486390128
1	48473	9691.469043027171	1.481617041307
1	48478	9692.117149035841	0.64924532507
1	48483	9692.488995299577	0.242079657024
1	48488	9693.259328724363	0.15499059838
1	48496	9694.062394132519	2.012578726113
1	48501	9694.423159472658	0.312896325339
1	48506	9696.0323319042	2.217438531169
1	48508	9696.425798075577	2.705487330223
1	48513	9697.263604716409	1.834364230163
1	48523	9698.329352603978	0.178378583936
1	48526	9698.571840172827	1.414735544747
1	48531	9699.96727243513	0.058668160847
1	48536	9700.606207851657	2.318644325015
1	48541	9701.185628072895	1.117992814224
1	48546	9702.196549331155	1.106113780575
1	48551	9702.675060961395	0.258609505682
1	48553	9702.862931271409	5.379754734686
1	48561	9703.179255896468	0.188298267687
1	48566	9703.795139866899	0.720541807383
1	48571	9704.141485554054	0.326930334084
1	48573	9704.607778399224	2.473301631391
1	48575	9706.654059798417	3.048537062747
1	48586	9708.893014971193	0.38557741403
1	48588	9709.01831931023	0.294534607507
1	48590	9709.296898873417	1.592900214706
1	48598	9711.436715022002	1.152347638233
1	48603	9712.284638936484	0.013149426
1	48605	9712.615586318945	1.475807725858
1	48610	9715.369476458822	0.876111012252
1	48618	9716.391371295467	0.4926702624
1	48620	9716.432923001128	0.756946174782
1	48625	9720.525719543244	1.538596167267
1	48630	9721.381497972271	0.439933464853
1	48635	9722.423441786967	0.785324072418
1	48640	9723.219179050479	0.558368451906
1	48645	9724.578456387029	0.594300896336
1	48653	9726.121552920863	0.16981730837
1	48655	9726.393863933981	0.664788224687
1	48663	9728.044654021697	0.343325032786
1	48665	9728.259644914418	1.626883627285
1	48680	9732.668945640252	0.318922734351
1	48683	9732.872340254711	0.726281717537
1	48688	9734.455326465704	1.961007037514
1	48693	9734.590559848059	2.030939244958
1	48696	9734.908298543109	0.467851857084
1	48698	9735.880545811289	3.222029239376
1	48708	9736.77051712313	2.297947742488
1	48711	9736.930186520096	0.426603054056
1	48713	9737.083973192445	0.852856672126
1	48718	9738.067408417185	1.957984921786
1	48720	9738.618734876131	1.217897767992
1	48728	9741.980660980864	2.896572357579
1	48730	9743.034235038942	1.710945260328
1	48738	9743.535003116148	0.079618115391
1	48740	9743.55107233965	0.022780993582
1	48748	9744.228066155289	0.617364451883
1	48753	9746.578950462379	1.281440052015
1	48755	9746.664996390181	2.441947418353
1	48766	9748.653421064562	0.986977706869
1	48768	9750.252376420271	2.139021545928
1	48776	9752.145423370329	1.67144649752
1	48778	9752.738056893628	0.773509249377
1	48783	9753.776866270141	0.094805902714
1	48788	9754.09087508559	0.140220045689
1	48790	9755.001864918868	7.394838572076
1	48798	9756.455548398387	0.461042127146
1	48800	9756.790392791952	1.690007777926
1	48808	9757.829370049111	0.344903954214
1	48810	9757.961204880637	0.922915052005
1	48818	9760.268853390041	2.221274574819
1	48828	9762.669472050805	2.476895285067
1	48833	9763.499624126414	1.106361640329
1	48838	9763.713087063153	3.11689123552
1	48845	9764.411305966625	2.639972335745
1	48848	9764.420625685306	1.530885455184
1	48851	9764.530793325863	0.265133856705
1	48856	9765.367655215795	0.57931554656
1	48858	9765.417142632212	1.095029084687
1	48863	9766.369576145583	0.422695352651
1	48865	9766.989795915542	3.334922020401
1	48876	9769.233172610721	0.843142892476
1	48878	9769.57137253871	0.625686892289
1	48880	9770.085638424196	2.651323876749
1	48885	9770.258715142528	0.055648921938
1	48890	9771.767687089755	0.168997201992
1	48901	9774.474495429961	0.778146304632
1	48906	9775.024167609045	0.615143091301
1	48908	9775.639065771502	0.981340325157
1	48916	9777.628714134733	1.908466970105
1	48923	9778.313735493089	0.455911512603
1	48928	9778.49237637322	0.559949848506
1	48931	9778.982716421059	2.505890583309
1	48933	9779.413465532195	5.224755836601
1	48938	9780.323657143449	0.749695716356
1	48954	9781.751163114381	0.354543193237
1	48957	9781.810640087448	0.383931483553
1	48960	9782.04333807057	3.62400355768
1	48963	9782.349459544265	0.769521465395
1	48966	9782.930309946126	1.254198676376
1	48968	9783.094924266522	2.169622425414
1	48970	9783.259221636636	1.58644058431
1	48978	9784.831972486739	0.52567311639
1	48986	9786.130878670311	0.8525641058
1	48991	9787.080669918703	0.255148333154
1	48993	9787.088067603391	1.336708838511
1	48995	9787.889880576933	4.106733293652
1	49000	9789.642088108645	0.314297031079
1	49008	9791.363569489114	1.342566076798
1	49010	9791.864906307947	1.645815577445
1	49015	9792.165874191336	0.223889405153
1	49023	9792.219964735695	0.008759550461
1	49025	9792.565943713478	0.369237975756
1	49030	9793.106166690932	0.48586103195
1	49038	9794.81364335712	0.513062237768
1	49040	9796.220707458236	2.313796912747
1	49048	9799.673222107281	0.059099525506
1	49056	9800.332797366517	1.423020267159
1	49061	9800.575893489931	0.886476500109
1	49068	9802.083580706188	0.863707485673
1	49071	9802.098003161372	0.792020532939
1	49073	9803.137212766826	3.080068901582
1	49078	9804.584557008466	4.159461907639
1	49083	9806.130398899541	1.831929442581
1	49085	9806.161352013946	1.326951236863
1	49090	9808.009744778324	0.024990871833
1	49101	9811.562777069213	0.101581877132
1	49103	9812.211498998196	1.413303389518
1	49105	9812.386206565979	1.271175608786
1	49113	9813.240951000804	0.768684088677
1	49118	9813.754017093482	0.796012984931
1	49128	9814.997810272814	0.585409526242
1	49133	9815.505177957462	0.819067748129
1	49136	9815.611864346803	2.252414637532
1	49138	9815.798423380935	0.885188174936
1	49143	9816.237847855059	0.968819333001
1	49153	9818.095794418487	1.918401407209
1	49158	9818.314512336968	1.07836608308
1	49163	9818.942816125277	2.464186680204
1	49166	9819.313069819169	2.93049371766
1	49168	9819.32518231534	0.847330197535
1	49173	9819.947828471503	0.012894277245
1	49178	9820.339464568143	2.162099261552
1	49180	9820.769159208122	0.761692185264
1	49185	9821.354991905527	0.09901752385
1	49193	9822.45888442123	0.69176461422
1	49198	9823.63255749571	1.346210264736
1	49200	9824.799223260098	1.869343194874
1	49205	9827.19280442314	0.389808380621
1	49213	9828.661120421897	0.05882702164
1	49218	9829.752858530992	0.956127377757
1	49223	9830.21131856346	1.825133382388
1	49228	9830.571671570757	0.430121199848
1	49230	9831.325263982541	0.795738297131
1	49235	9832.310679071291	0.213128611517
1	49240	9833.110577685839	0.262970185395
1	49253	9835.533435985692	1.810243579331
1	49256	9835.582786320572	1.597478875856
1	49258	9836.184267192485	1.473963678743
1	49260	9836.33463009591	1.926390097539
1	49268	9837.544892548745	0.612842891856
1	49270	9837.556762944413	1.085098701857
1	49275	9839.229973193755	0.286514969027
1	49280	9841.929539282924	0.006216993009
1	49288	9845.022089134808	2.523315932559
1	49290	9845.470993441335	1.194364091058
1	49298	9847.831266392587	0.077003671408
1	49303	9848.914734582561	1.522488955155
1	49308	9850.896302669257	2.144816107074
1	49310	9850.923005690894	0.158684639394
1	49321	9853.103478564674	1.851771238412
1	49323	9853.52850589015	1.446980085559
1	49325	9853.611786133285	1.342538589435
1	49333	9857.372146173014	0.226275585655
1	49335	9857.633685075586	1.162183866494
1	49343	9858.598424794042	0.11495118113
1	49345	9858.802221344237	1.07233345376
1	49353	9860.979994253815	0.223607056832
1	49355	9861.223194301606	1.963384121308
1	49360	9862.522054352947	0.57911397002
1	49371	9865.655429632906	0.038867916846
1	49376	9866.487614435331	2.364934052161
1	49378	9866.552447387912	0.6704197471
1	49383	9867.158558569994	1.586832037486
1	49385	9867.779363680843	0.744748174205
1	49393	9870.468721661614	0.908732397955
1	49395	9870.699375326867	1.803527653396
1	49400	9870.91109777408	0.068197962912
1	49408	9872.123133802929	0.544263227395
1	49418	9872.973582635351	0.484645182869
1	49423	9873.160180755818	1.079399173724
1	49428	9873.956160216722	0.926266188921
1	49433	9874.579322581786	0.975037632684
1	49438	9875.116208182492	0.567315162484
1	49445	9875.982137278536	1.274911794525
1	49450	9876.85963197901	4.425723434218
1	49455	9877.146532663594	4.481575648605
1	49458	9877.167277963932	1.368106510653
1	49461	9877.398697132003	0.893998555042
1	49463	9877.849501700389	0.861145762966
1	49465	9879.314603711442	3.369459853211
1	49478	9881.699520818481	0.263876453073
1	49483	9881.908943173591	0.705823929685
1	49486	9882.327765871483	1.514985654026
1	49491	9882.67934341582	0.153073548947
1	49496	9884.040158088143	2.216111634246
1	49503	9884.66313564104	3.163751163253
1	49506	9884.802270862372	0.219417959546
1	49508	9884.991956752421	2.162669433552
1	49513	9885.50388609705	0.918312891303
1	49518	9886.549533903789	0.831244795966
1	49523	9886.892854319247	0.237785866396
1	49525	9888.161381711087	2.673869699134
1	49530	9888.876845138168	0.307822132726
1	49538	9890.207314797372	1.13497784761
1	49540	9891.090783183585	1.374522510339
1	49548	9894.083760085517	0.330486288894
1	49550	9894.156989237366	0.895881020216
1	49555	9894.896683427958	0.206742294685
1	49560	9896.123680377796	1.063187100141
1	49565	9896.896942281199	0.260496637384
1	49570	9897.340533018482	0.17766715965
1	49575	9899.177448116591	0.140574744943
1	49588	9901.138377057784	1.244487759546
1	49591	9901.147771319229	1.34263955576
1	49593	9901.44179915268	0.877189926253
1	49598	9902.494596033188	0.890268718836
1	49600	9902.903339338498	2.623817159564
1	49605	9905.89773662731	2.520943751432
1	49610	9906.992983643712	0.252965735982
1	49615	9909.632817235825	0.605079407023
1	49626	9911.299466218305	0.716592177654
1	49628	9913.057844056431	3.376044510537
1	49630	9913.236590134192	3.098482578153
1	49635	9914.460074487357	0.595419692508
1	49643	9916.379746930974	0.914933243684
1	49648	9916.878775554507	0.283612144968
1	49656	9917.639261123567	0.72841523586
1	49658	9917.869396029314	2.89727904642
1	49660	9918.200402707112	0.849925035238
1	49671	9919.265670717427	0.158316573131
1	49676	9919.329703160867	0.803613720877
1	49678	9919.342910296114	0.520336114195
1	49683	9919.926118323823	0.11915302594
1	49688	9920.531598100398	0.15020466551
1	49690	9921.316891004637	2.025379377406
1	49695	9923.709460215491	0.16163481507
1	49700	9923.895727717533	0.040208129055
1	49711	9924.825840089629	0.130750817192
1	49716	9925.639853627591	0.619095469024
1	49718	9925.848367250044	1.950041614504
1	49726	9926.272720841697	0.134850988266
1	49728	9926.367069939903	0.499530696805
1	49733	9926.817584901275	2.222927624587
1	49735	9928.644743134806	1.997991794716
1	49746	9930.133618160902	0.182200527853
1	49748	9930.726374140648	1.350226162495
1	49753	9931.277505991821	0.306022085339
1	49755	9931.309105216127	1.99559661554
1	49760	9932.058992678417	0.213569811412
1	49773	9933.422708621577	0.163044047474
1	49776	9933.43285509948	0.139296697435
1	49778	9933.602699365921	0.630395134457
1	49783	9934.691564983046	0.326437611663
1	49785	9934.712047794363	1.786584222786
1	49793	9935.81805333053	0.032203888167
1	49798	9938.565806787901	3.654692945606
1	49800	9938.844724070526	2.424205158465
1	49805	9939.841643517166	0.059686754534
1	49813	9941.042253592787	1.114041464037
1	49815	9941.135453073325	0.43031676685
1	49823	9941.88317962925	0.607884460405
1	49828	9942.093438020211	0.249922428864
1	49830	9942.34773432062	0.41328438052
1	49835	9943.095043943502	0.368322710575
1	49843	9945.364651608759	1.234089369524
1	49851	9945.992861849726	0.526475072743
1	49853	9947.252260465326	2.049910593352
1	49855	9947.40692568525	1.694021889794
1	49860	9947.602539118833	0.01161644714
1	49865	9951.389324552451	1.549743964047
1	49876	9952.291071290832	0.25365512327
1	49878	9952.410640298851	0.746450509789
1	49886	9952.990030781824	0.472796157461
1	49891	9953.514707125354	1.794135719291
1	49893	9953.811904494247	1.196363766749
1	49901	9954.488373994673	0.650694340699
1	49903	9955.08474443207	1.886644334529
1	49908	9956.241644882996	1.873143307907
1	49913	9957.020433398434	0.794779844986
1	49923	9960.043137750058	0.487154519734
1	49926	9960.623720032787	2.350842743928
1	49935	9961.649557250715	4.752629429169
1	49938	9961.775070957243	1.024115245989
1	49941	9962.145691088648	1.449625355923
1	49952	9963.155013752873	3.343080917637
1	49955	9963.276093568079	1.086686305551
1	49958	9963.374543174225	1.187388840791
1	49961	9963.678511502653	0.796712726712
1	49963	9964.426483181311	1.761109186354
1	49968	9966.490413945739	5.048759010334
1	49973	9967.412048760194	0.799501126934
1	49975	9967.512539676985	1.329922460495
1	49980	9968.370893972964	0.506089082208
1	49988	9969.78619915895	0.024074914166
1	49993	9970.104643586252	1.420594024399
1	49998	9971.567684183356	1.679726667902
1	50000	9971.902301645481	1.379390189654

